35
         -61.567835061851          0.000823954572
C          -1.21369793875899   -0.10781615072630   -0.26785846348999
C          -0.39392010740547    0.97195716430088   -0.07062043997141
C           0.83916825854826    0.41333921210355    0.31190850641607
N           0.77220827258105   -0.89668120273609    0.34354024085251
N          -0.47745141123960   -1.22073684505010   -0.00861819123087
C          -0.86407623954300   -2.55705304601999   -0.06911758047102
C           0.08434075220527   -3.54013889125329    0.22621595344808
C          -0.25364077889558   -4.87055688756373    0.16339604697481
C          -1.55762941535747   -5.25572633741197   -0.17598973265835
C          -2.50537462073677   -4.26370253834009   -0.46803252234168
C          -2.16224144720138   -2.93278570750047   -0.42095249818212
N          -1.80195397678979   -6.60336099295221   -0.27267983043792
N          -3.02381980544047   -6.96965516855066   -0.28874360899900
C          -3.23062401962076   -8.30095822973132   -0.47922992737149
C          -2.31455646284118   -9.34613421684992   -0.80350698620542
C          -3.08668661734465  -10.46581545027473   -0.90109222918840
N          -4.46870146691888   -8.78636488574961   -0.39432312408252
N          -4.37064509650696  -10.08498812834624   -0.64499106749205
C          -5.49842348140766  -10.87697603984338   -0.62019748090326
C          -5.71707804775990  -12.21930646350021   -0.82228964057930
N          -7.03697959102967  -12.48475442819341   -0.67177514345424
C          -7.61253073639051  -11.34914916479817   -0.39037713596682
N          -6.72082838235003  -10.33127335472954   -0.34450645403981
H          -6.86066136749354   -9.35200685859791   -0.15060415588848
H          -2.23989724036243   -0.14748480215170   -0.56778163975054
H          -0.63658773518982    2.00845568968704   -0.18255015235727
H           1.75283360691184    0.91596206918905    0.55967666676426
H           1.07951314383271   -3.22448850037342    0.49515508576347
H           0.47052062539468   -5.63753044659148    0.38908693944012
H          -3.50242516730357   -4.57273148320617   -0.74284337287440
H          -2.90584314107833   -2.18778567251588   -0.65729307588096
H          -1.25916375478808   -9.24257234598552   -0.93999118391512
H          -2.84382444203421  -11.48398580069873   -1.12603673596019
H          -5.02018964466627  -12.99579996819234   -1.06054610790785
H          -8.66102252301963  -11.22370412684651   -0.21313095805924
