37
         -65.385113343623          0.000365529495
C          -0.54630966726512   -0.12219502894139   -0.60307994990748
C           0.10542670020497    0.95257830841449    0.03558588784580
C           0.63206246487636    0.44047907261041    1.18330272135721
O           0.35194806690279   -0.86358110013456    1.29503051116942
C          -0.37047082721722   -1.22227431061041    0.20589172140018
C          -0.81369061842534   -2.59114165851080    0.07471189668916
C          -0.51150260021815   -3.52712370746853    1.07163212727486
C          -0.93245145714309   -4.83072417275270    0.95997900974248
C          -1.67682745053190   -5.24219982128795   -0.15348391422887
C          -1.97275249935875   -4.30669025607872   -1.15888531932965
C          -1.54892030789119   -3.00605568533470   -1.04383588724922
N          -2.04212471958131   -6.56691241670369   -0.18526724327424
N          -2.84164890881057   -6.91133137839850   -1.11466726534189
C          -3.14430043674084   -8.21932281528512   -1.26253652644627
N          -2.39466845695105   -9.25513077726875   -0.89778672867502
C          -4.29764930671154   -8.68668422826023   -1.97613065544097
C          -5.43774423560166   -8.20894089123676   -2.61239102532849
N          -6.28876563243762   -9.04305287997950   -3.16604125889075
C          -6.04209694561252  -10.36690477803321   -3.09601507106389
N          -6.97036204673737  -11.16393402263983   -3.65941433528750
H          -6.81056918912462  -12.15288368073609   -3.69870468946866
H          -7.72897366882038  -10.73861818414379   -4.15832993731239
N          -4.99539114058048  -10.95838223993595   -2.52164120873819
C          -4.14738173670045  -10.09646581610492   -1.97211260000929
N          -2.99038417668782  -10.37044896322009   -1.32908285324442
C          -2.40508125850019  -11.66244961336923   -1.12497370992362
H          -1.07340512838557   -0.08170839389968   -1.53372003101968
H           0.17275926193780    1.96386870862151   -0.30960755148801
H           1.20505384387940    0.88894910946954    1.97086352419341
H           0.05861794246407   -3.20899636485789    1.93121602113109
H          -0.70685282042044   -5.55923155509186    1.72307244384376
H          -2.53816669409374   -4.63722260081589   -2.01719421843888
H          -1.78272163778718   -2.29392724188002   -1.82019100474071
H          -5.67009539733238   -7.15520241125189   -2.68797049346899
H          -3.05998605968188  -12.39735793752565   -1.58836590511368
H          -2.30911385900108  -11.86525210871517   -0.05713738183556
H          -1.41365939591595  -11.70046815864581   -1.57875909938432
