41
         -75.165541222998          0.000904482862
C          -0.46808463860228   -0.23414881833814   -0.44172859516494
C           0.12363456830911    0.83342592904744    0.17904804011058
C           0.56318275854776    0.32405997631926    1.41509875973165
N           0.26173661975896   -0.94681734294004    1.53385779037313
N          -0.36693607994984   -1.29430520962417    0.40436751948006
C          -0.82342101964829   -2.59707671398158    0.22983549118458
C          -0.64970681875117   -3.51099597840328    1.27280530702466
C          -1.09524813460479   -4.80447170200970    1.14128809567767
C          -1.72873036310090   -5.22148512787244   -0.03735001038227
C          -1.89038170725050   -4.30038615569304   -1.08413758849195
C          -1.44533362885884   -3.00646030712247   -0.95257454758774
N          -2.14273895769328   -6.53150700055628   -0.07569937454333
N          -2.79034119497929   -6.88941002795578   -1.11310669445502
C          -3.13067330892633   -8.18470788221189   -1.25876994592667
N          -2.49061049230296   -9.23233725849646   -0.74855738694189
C          -4.18033726483571   -8.63506802565226   -2.12766384973922
C          -5.18824003747480   -8.12591110948738   -2.94010157572168
N          -5.98746071287093   -8.93647530087537   -3.59414306772019
C          -5.82054207354518  -10.26764397293431   -3.45438241539187
N          -6.67823441265630  -11.04269775147154   -4.13921097525872
H          -6.59270527767571  -12.04008909162505   -4.08494888187349
H          -7.36663892265981  -10.60632318387673   -4.72348441684193
N          -4.90180819241032  -10.88464810913398   -2.70877192411979
C          -4.10474330218650  -10.04713485501047   -2.06447835515459
N          -3.06444364419393  -10.34557607181261   -1.23729463124820
C          -2.57391661341084  -11.58626085205541   -0.90263895252678
C          -2.93847936624906  -12.86138236136969   -1.26261338378424
N          -2.12801102814059  -13.74809763283055   -0.63507337881484
C          -1.29666958497208  -13.04619929411370    0.08348165721621
N          -1.52227899371594  -11.71523284107758   -0.03972279418217
H          -1.04924576320841  -10.93437983478267    0.38709931099710
H          -0.94122371181357   -0.29850311785756   -1.39904396920852
H           0.22817077928190    1.83208030954541   -0.19153537396556
H           1.07865459509280    0.83527301192538    2.20349909149186
H          -0.16264397973691   -3.17118458155884    2.17257352107338
H          -0.97096221680398   -5.51981694739686    1.93873730910400
H          -2.37379276715357   -4.63035195510643   -1.99099223201441
H          -1.58097907313052   -2.31555299688701   -1.76991239635416
H          -5.35343035080458   -7.06524129241217   -3.07300077830874
H          -3.72256971287792  -13.16775952898581   -1.92172698597656
H          -0.52429597379807  -13.45690899332004    0.70113258823804
