33
         -59.197362371982          0.000362139885
C           2.02254722335597    0.22040393088767   -0.91429189790195
O           2.71787665760474    0.07790321241907    0.30133639029833
C           3.23437499781543   -1.13420936535005    0.62419367927431
C           3.90159687832897   -1.20195554453057    1.85374536286340
C           4.47053569568062   -2.37725934360534    2.27525373127672
C           4.38037511219813   -3.53365512085524    1.48609210020271
C           3.71182290430392   -3.45901293931269    0.25659701796332
C           3.14883113074267   -2.27726645160467   -0.17173760723184
N           5.00527695925955   -4.65681096204323    1.96797391153739
N           4.75902027626919   -5.75091394945342    1.35907574045732
C           5.44912958858004   -6.85581493872074    1.69977855489178
N           6.64964651653042   -6.90213848571916    2.28589225872617
C           5.03041117196155   -8.18518902488456    1.36954134768816
C           3.96127357998905   -8.86946291537302    0.79943542685084
N           3.97951392615474  -10.17969183655959    0.71211602305450
C           5.04259599000924  -10.85388319047633    1.19810324448075
N           4.96078663737794  -12.20014668159332    1.13122265670403
H           5.78608356649402  -12.73794507666730    1.32423866188150
H           4.22332733131532  -12.59327675070907    0.57517084213146
N           6.13059794144474  -10.33364947851805    1.76061598209776
C           6.09436080152458   -9.00563234362846    1.82415118496705
N           7.02347401066090   -8.17287982192431    2.33985694647482
N           8.29066280021487   -8.52234472572975    2.77061494259281
H           1.70155766012781    1.26027299912436   -0.94939723804745
H           1.14373529674083   -0.43084993157623   -0.95290007207896
H           2.66816342090818    0.01256510612619   -1.77339655024792
H           3.95654785106274   -0.30550117430673    2.45120196552545
H           4.98774655654711   -2.43817028143881    3.21967191307721
H           3.65480683777632   -4.34848989031197   -0.35268740010817
H           2.64592095582463   -2.24963396196689   -1.12625574969172
H           3.08843615686447   -8.36723157817418    0.40485971160444
H           8.25282670320163   -9.43274252298280    3.22052488859863
H           8.63432686312940   -7.80113696054073    3.39831203008737
