32
         -55.133834166813          0.000710145408
C           1.18298387600173    0.17260171682810    0.23608001907686
C           2.67371271637339    0.06258291275138    0.16172242195240
C           3.49650438222248    0.87508382410579    0.93522618362477
C           4.86913080128733    0.77559514663277    0.85222453826478
C           5.45834200679572   -0.15062888807916   -0.01516007620539
C           4.63071324287272   -0.97123340467390   -0.79699922184383
C           3.26323665065321   -0.86029060061382   -0.70273585559152
N           6.83421936589082   -0.16269814784159   -0.04567058035352
N           7.37378456945266   -1.05756859298607   -0.77764692218427
C           8.71104952768764   -1.04341749562388   -0.93642904506959
N           9.53115619965710   -0.00480203403606   -0.74693220656613
C           9.45459759345344   -2.14007657506610   -1.48059175520672
C           9.27948931911571   -3.45000533821301   -1.91777870949986
N          10.29433753162231   -4.13464850518226   -2.39197930184708
C          11.50962713670636   -3.55086845303977   -2.44811306721355
N          12.49187187654947   -4.29484913873296   -2.99982575971237
H          13.43774071888109   -3.96865320803001   -2.91624486866860
H          12.30944584755325   -5.27037903580418   -3.15073439975061
N          11.82381160068347   -2.31928574853686   -2.05350637021872
C          10.78194278938172   -1.64914731007967   -1.57137581078823
N          10.74654929698533   -0.37513943020489   -1.12299057303168
N          11.81671762018857    0.48909675552301   -1.00241824078117
H           0.87949265152895    0.85821316226146    1.02302777082065
H           0.73766644981570   -0.80257273115429    0.42816987675077
H           0.78582952618796    0.53586211730420   -0.71183986414914
H           3.05134446210939    1.59421300330167    1.60825749001775
H           5.51372534634769    1.40262315542205    1.44833539348072
H           5.09157394252868   -1.68230979898697   -1.46593773525432
H           2.62896580140050   -1.49478294597533   -1.30660217754996
H           8.32213911318343   -3.95236596227027   -1.89273327877392
H          12.41920350485786    0.41568779169389   -1.81779890527697
H          11.45695453202412    1.43115375930644   -0.87835896845181
