30
         -51.201522075366          0.000859443327
C          -0.89107575286367   -0.92648205060160    0.60787624673928
C           0.38135598887657   -1.26032883245866    0.43096323485999
S           1.58688564942658   -0.29420550210143   -0.42993635203069
C           0.53132061369469    1.05355006568500   -0.87307900051426
C          -0.75256109329191    1.16455611715574   -0.55526571052292
N          -1.50553229940168    0.24152486330550    0.16505765356391
C          -2.84999977967901    0.47795081267176    0.42631354838528
C          -3.77055304746950   -0.57800137340869    0.46175590096339
C          -5.10030575934919   -0.33832943974287    0.70915952805816
C          -5.56515478010743    0.96384653814820    0.93585303985218
C          -4.64024816538556    2.02086618582727    0.91013063193305
C          -3.31343326324420    1.78184007742404    0.65828305065919
N          -6.91214370702883    1.10536608249152    1.15848144651401
N          -7.32401399279873    2.29564652369077    1.38691242806414
C          -8.66850188348130    2.42348760652828    1.56731422615022
C          -9.71763046595674    1.46899000749993    1.41952474415741
C         -10.85819078481774    2.16780262179457    1.69480319741958
N          -9.17063482308442    3.60996554454653    1.90935264280696
N         -10.47792575240629    3.43684508483964    1.98370873435221
H         -11.06857344672356    4.21383321824558    2.23652279809533
H          -1.52917018659447   -1.57717526047479    1.18617453471058
H           0.78321367794432   -2.17396596776664    0.83065294666618
H           1.03070163175037    1.80206743123671   -1.46147961243916
H          -1.31145125100957    2.01519481164312   -0.91519571776913
H          -3.44378129954236   -1.58652480376829    0.25601910183488
H          -5.81280127030395   -1.14850014346539    0.72049839964924
H          -5.00168931393448    3.01922113975532    1.10360221873456
H          -2.61392743252280    2.60494371273592    0.67480768599897
H          -9.60617382110257    0.44210980847990    1.14422029796829
H         -11.88844418959234    1.87271512008321    1.70870815513921
