38
         -68.622856368820          0.000973015870
C           2.65634400409447   -0.41902935821956   -1.15262350671232
O           2.74812652059378    0.26160266130272    0.07652700559454
C           3.35681941352929   -0.34596145187536    1.12195838219286
C           3.37770921460117    0.38130824312518    2.31934357319802
C           3.96484566188426   -0.14232954922423    3.44339204536113
C           4.55323172437126   -1.41560606448032    3.40961148243525
C           4.53705111095719   -2.13512799689596    2.20672445899442
C           3.94647179619126   -1.61124121899080    1.07874652184497
N           5.12039973183635   -1.85472626778364    4.58002239205916
N           5.57925135592969   -3.04097635112925    4.58420456010839
C           6.26642823591556   -3.48829790455794    5.65241186943468
N           7.03815087659836   -2.75579924280232    6.44761682656443
C           6.40456003097093   -4.88135014333481    5.98076428624386
C           5.93861336580130   -6.13391692530438    5.60001004351886
N           6.35687354078336   -7.21676557741733    6.21850204784163
C           7.23342771629466   -7.09321688344529    7.23377853921509
N           7.60610794406792   -8.23435691990313    7.83870355660150
H           8.29595662112431   -8.19827334738150    8.56607736974076
H           7.26876227095829   -9.10679033442227    7.47786501254420
N           7.75410262942667   -5.95636621377058    7.69988307290766
C           7.32091153013157   -4.88427567438416    7.05786670322398
N           7.67846249772393   -3.59274762046121    7.28304039405750
C           8.59048111059553   -3.15786206170471    8.21316225844115
C           8.97044701209086   -1.87012826495835    8.46340757345546
C           9.92433487636632   -1.79806639681367    9.49870418964871
C          10.24336667885263   -3.01559695451695   10.00774498107263
S           9.38926389066159   -4.30207603513819    9.23738993359454
H           2.11824698416385    0.25189105410120   -1.82015313456565
H           2.09738646586168   -1.35430121283415   -1.05179542805545
H           3.64523074368876   -0.62841627576394   -1.57145462915207
H           2.91917002693066    1.35763316115830    2.32768797446899
H           3.98510819956505    0.40888449862575    4.36994375835949
H           4.99643522595454   -3.11187880934870    2.18417700752248
H           3.94745644309627   -2.18885373837212    0.16710722047405
H           5.23381459847248   -6.27839322974192    4.79249917053644
H           8.57329072631217   -1.03251553596184    7.92195514133358
H          10.35097449006379   -0.87500941456706    9.84765561858713
H          10.93208473353875   -3.24436664280731   10.79596172730780
