34
         -62.210069437040          0.000435472934
C          -1.11811805525777   -0.05751093686600   -0.33647260397635
C          -0.21330028707276    1.00286300601012   -0.12650170134070
C           0.94479608887683    0.42569696113704    0.30136926187505
O           0.81692693650291   -0.90448563352428    0.36921749900070
C          -0.44363372996642   -1.21530393058016   -0.01947304560435
C          -0.85306739513785   -2.60058278958704   -0.03630588898864
C           0.04319292021482   -3.60284451910101    0.35518264965726
C          -0.33706391348110   -4.92372824003995    0.34931353461357
C          -1.62897326676288   -5.28676566621214   -0.05248943506798
C          -2.52761480667455   -4.28360244400002   -0.45105166991078
C          -2.14478496226233   -2.96529377505512   -0.43987806548370
N          -1.91318803954688   -6.63265081212292   -0.02919689647075
N          -3.09386086139852   -6.96989784932347   -0.35206584295454
C          -3.40480414574898   -8.27955288990462   -0.46387238967869
N          -2.59246725997830   -9.24188227397235   -0.88268674527702
C          -4.73543770112743   -8.79683045606000   -0.30961216804246
C          -6.00685969889325   -8.38733517117471    0.07436704598569
N          -7.00673142317036   -9.24027472370476    0.07966282380680
C          -6.77266354825369  -10.51762200751049   -0.28149706443031
N          -7.83909897764024  -11.33769004749072   -0.25687765866495
H          -7.72281540388899  -12.30479466163063   -0.49360715920584
H          -8.72352710041057  -10.97306869688841    0.04271793895686
N          -5.60680060104197  -11.04426646104633   -0.65952109350154
C          -4.61459923095455  -10.16561268798486   -0.66425708595356
N          -3.32270510937233  -10.36178941819092   -1.00657372253422
H          -2.89676594101851  -11.20194490523449   -1.36333615585446
H          -2.12965418651705    0.02932563836385   -0.67525269811782
H          -0.39741804188576    2.04735453307558   -0.27263975405523
H           1.89296955541893    0.84279678584672    0.57825489891236
H           1.03880755183649   -3.32224138428015    0.66328836222048
H           0.34439739452963   -5.70444469445852    0.64911664656262
H          -3.52018198665958   -4.57524086599608   -0.75993100545504
H          -2.84217095192642   -2.20038122659919   -0.74469564651839
H          -6.23208382133242   -7.37231775589372    0.37313483549520
