35
         -57.608272792521          0.000716770364
C          -1.17399858516201   -0.04874692814032    0.00246111885018
N          -0.38053111514155    1.04544620767315    0.04935132684076
C           0.84484472173883    0.59743919275937    0.04506165241833
N           0.88605855184080   -0.75361189890384    0.00524686153719
H           1.70961595464707   -1.33128797938601   -0.02721184684852
C          -0.41389503330401   -1.20172059171523   -0.02725156200238
C          -0.79079687086367   -2.59522649041511   -0.06758280609499
C           0.13931072634333   -3.61547553134916    0.16664136417716
C          -0.23272648747588   -4.93833555307332    0.11378629021111
C          -1.55928728001886   -5.29329523224693   -0.15742795730305
C          -2.49598184417643   -4.27394854167643   -0.38941076852488
C          -2.11539170205797   -2.95537110595964   -0.34749510886013
N          -1.84035278990733   -6.63442094739503   -0.25921862607251
N          -3.07380963266392   -6.96514359748790   -0.18421011687888
C          -3.37260782002981   -8.27233557734763   -0.38453284143792
C          -2.56318451979053   -9.33925743842570   -0.75137278851957
C          -4.70681856947566   -8.80024295717414   -0.26504341051178
C          -5.93641815852851   -8.24270073973763    0.06808706674383
C          -7.04377119199383   -9.06443350421321    0.08296240474526
C          -6.94722813099136  -10.42286338080152   -0.22537356522411
C          -5.73794135659904  -10.99952781864912   -0.55656483503419
C          -4.62191907512780  -10.17559900661762   -0.57234807996996
N          -3.30996729016165  -10.46201298173337   -0.86108860443643
H          -2.96155103391768  -11.37080412606003   -1.12059645297861
H          -2.23978482307031    0.05560407403701    0.00705986310990
H           1.72303605127044    1.21140165276406    0.07194388014299
H           1.16642877576704   -3.37297849923601    0.40274125875082
H           0.48542016039501   -5.72292122159771    0.29844489223835
H          -3.51353828052286   -4.55612428011413   -0.61465727147472
H          -2.84078838885921   -2.17975795308257   -0.53996761920671
H          -1.50693625284778   -9.33812383869524   -0.93942246124847
H          -6.00785677863180   -7.19352989150993    0.30687511163722
H          -8.01014523183722   -8.65510508887987    0.33756920758354
H          -7.83784260158878  -11.03302978247212   -0.20364620476722
H          -5.66181409725695  -12.05032864313707   -0.79461937159147
