34
         -58.963211428698          0.000680606846
C           1.72801736972288    1.48125247819329    0.02686497868730
O           2.60977254260706    0.40148438137316    0.22495892423312
C           3.28536408526930    0.31201213844629    1.39635155604792
C           3.17264045638136    1.21174610143611    2.45590915467859
C           3.91000782999942    1.01726926857870    3.60486318778273
C           4.78314782097628   -0.06762794355647    3.72429252869791
C           4.89261327039274   -0.96987999117749    2.65162834265604
C           4.15279127333011   -0.78314635054092    1.51318051557631
N           5.47249655721346   -0.16506679959817    4.90963859603027
N           6.30288517627321   -1.12489669421754    5.00400250918128
C           7.08079044480052   -1.21010296085565    6.10550121561984
N           7.47100831587669   -0.20081578152892    6.87660274722334
C           7.73972345802956   -2.41565603392538    6.51872690756179
C           7.80877821782367   -3.76747757753213    6.20398835421391
N           8.59112997864092   -4.57103128682729    6.88977015977857
C           9.31464894029151   -4.06279328766223    7.90677538008566
N          10.13030355482706   -4.93429236789439    8.53806270748039
H          10.57158313948086   -4.64358804172779    9.39084532248037
H          10.02232733293311   -5.90994223206844    8.33079336594979
N           9.32855268253645   -2.79946915528757    8.32824620198204
C           8.53896336938495   -2.00341397565714    7.61557301795373
N           8.34542508032048   -0.67594352194934    7.77152945967655
C           8.99221432255128    0.18513294158783    8.71682888935306
H           1.31765509514395    1.34603519643125   -0.97253860443227
H           2.25204725437419    2.44090314468139    0.07599520793284
H           0.91255599908182    1.47324097194103    0.75690120353342
H           2.51243636472409    2.06244435310483    2.39141350293812
H           3.83285175791426    1.70653840300120    4.43116901390728
H           5.56333608983648   -1.80955508561681    2.75051179798733
H           4.21903727385909   -1.46765846540066    0.68157835131061
H           7.23989425203802   -4.21349287229461    5.39929159461179
H           9.67815358745855   -0.42374983255415    9.30197180298266
H           8.25080555813899    0.64889259378380    9.36952488652324
H           9.53847154776984    0.97135828531453    8.19349721977413
