28
         -49.073365136418          0.000742538432
N           1.27429351709303    0.15247137478539    0.50760493498703
C           2.41317759997401    0.09997795344334    0.37693475340929
C           3.81256794740241    0.03250530026482    0.21273268823882
C           4.64005451717240    0.94550501644532    0.87770010153527
C           6.00209201222759    0.88693271097367    0.70808093999225
C           6.57255909277785   -0.10179491549083   -0.10851655386008
C           5.73481136219552   -1.01263572037292   -0.77476509302134
C           4.37105844598940   -0.94340183605116   -0.61918497995989
N           7.92102557538312   -0.04399412150163   -0.32005259956762
N           8.53757879437618   -1.11875580638109   -0.59297294884068
C           9.85207078507328   -1.02702933210715   -0.91665598878349
N          10.59012698068447    0.07946936565193   -0.97321037912728
C          10.65938754137901   -2.16828866078369   -1.24871740250483
C          10.44948373486805   -3.54024202319164   -1.36115938978762
C          11.52232913051132   -4.32383841837910   -1.72125020974583
C          12.78653771004740   -3.77252007591193   -1.96894944811618
C          13.01989160485133   -2.41970559805737   -1.86563422322692
C          11.93816702621829   -1.62376857085524   -1.50313994090823
N          11.81602953726707   -0.27817838805974   -1.31474121881185
H          12.53360998087230    0.42566111281415   -1.40000892899122
H           4.19608463334288    1.69718828822197    1.51371946746354
H           6.65678408064378    1.58030248628140    1.21250609795798
H           6.18868022999200   -1.75056208587036   -1.41918417450425
H           3.72239588596635   -1.64136681742540   -1.12872925726140
H           9.47581363842332   -3.96111242222508   -1.16819794120360
H          11.39537177152166   -5.39162471398025   -1.81772017342197
H          13.59626837315149   -4.42966756000027   -2.24852126738308
H          13.99256849059473   -1.99344654223704   -2.05671686455671
