32
         -55.512033852440          0.000602902717
C           1.60851943873582   -0.28751873013059    0.64031617417555
O           2.43940180135405    0.38184887353041   -0.27960765780454
C           2.83166994132125   -0.26320036062912   -1.40239649427387
C           3.65620193141607    0.46946231474338   -2.26670519711482
C           4.10639019325604   -0.08500853282731   -3.43778208633282
C           3.75556013047822   -1.39973217855774   -3.78060148912291
C           2.93274453001881   -2.12957558508989   -2.91140814230894
C           2.47318156033314   -1.57018915470765   -1.74090484456333
N           4.22918787366677   -1.86727972067574   -4.97998530202402
N           4.02239926013737   -3.10253439955278   -5.23735237220666
C           4.41478569792217   -3.51417405042782   -6.46831562918802
N           4.43760007900509   -4.80534888532008   -6.76316982504226
C           4.78187571347292   -2.74782881878072   -7.63266684807638
C           4.94285550947809   -1.43383462866798   -8.05239444994723
N           5.31361056294829   -1.18018900412633   -9.29457786273173
C           5.51043292479903   -2.19982034705766  -10.12513793586620
N           5.38094780021373   -3.48684822760255   -9.87371386457093
C           5.01956509999516   -3.74023936466003   -8.61868481654889
N           4.80124130178243   -4.94217308774905   -8.03791441295431
C           4.94403811945830   -6.23198723303882   -8.64643568467716
H           1.43764500626568    0.41964698397439    1.45026932599659
H           2.09220284324611   -1.18449526145627    1.03925743822870
H           0.64908305516565   -0.55964451451468    0.18944040812136
H           3.92014775110932    1.47628393875274   -1.98401103152304
H           4.74160603694112    0.47274637777116   -4.10771753950593
H           2.66411163950592   -3.13815404334448   -3.18690007287404
H           1.83551435602536   -2.15290279687559   -1.09417789348052
H           4.77940195328532   -0.58768607508238   -7.39936241317281
H           5.80899210507624   -1.93932540906733  -11.13192644938459
H           5.10951553515534   -6.08075950440919   -9.71118929171807
H           4.04021588040632   -6.81874262486484   -8.48140317428446
H           5.79189436802318   -6.76374594955688   -8.21077056522043
