32
         -60.312036212545          0.000417236001
C           2.82952490518006   -0.01338325283288   -1.07599553639344
O           2.71893527869475    0.15003318354885    0.31975891158455
C           3.23228773121517   -0.79268866676684    1.13718678426006
C           3.08128140137365   -0.55497262521214    2.51107352976733
C           3.56868718881456   -1.44738445236259    3.43096241451620
C           4.22078047496018   -2.61589868382911    3.00748979594031
C           4.37187347338593   -2.84867312495094    1.63295572842264
C           3.88665533467048   -1.95174511747284    0.70949063440540
N           4.70010093658370   -3.43749114164417    3.99566607684237
N           5.17369972585968   -4.55320614938147    3.64762176134367
C           5.82826217378080   -5.36369313244665    4.49646525840442
N           6.81067000570467   -4.98453510085347    5.29176504375115
C           5.73346860434508   -6.80193137591052    4.46350307933972
C           4.96988488128495   -7.80797585761384    3.88481295745148
N           5.22695806938849   -9.07113896041884    4.14393796119702
C           6.23327998150486   -9.36939136247925    4.98600623380072
N           6.46118874382287  -10.67260212027265    5.20793015752805
H           7.18293286428215  -10.93939140604205    5.85160466399841
H           5.86319382495381  -11.35314443657476    4.77767576207056
N           7.03020825369903   -8.49869567743763    5.61632620480992
C           6.75512435600354   -7.24134619355907    5.33505933253393
N           7.39112266772858   -6.11582646485577    5.79611244965623
C           8.44935435210625   -6.07768613342331    6.59060873819392
N           9.35716115798176   -6.06041968855154    7.28801652834970
H           2.34874944157567    0.86038825113976   -1.51242474975456
H           2.31443750144418   -0.91702216019876   -1.41536945143435
H           3.87587953845102   -0.04688497704597   -1.39364228481285
H           2.57605040282164    0.34755484614570    2.81638563527208
H           3.46098584360184   -1.27290005003590    4.48963899464321
H           4.88182853502526   -3.74509510508519    1.31301132229235
H           4.02004738113978   -2.15377674823180   -0.34185942873313
H           4.15178496861473   -7.60743611534643    3.20626549075302
