35
         -61.928930427351          0.000412208048
C          -1.20331592664713   -0.05536979005520   -0.27840139342914
C          -0.31449502467247    1.01466616945304   -0.04830864128218
C           0.85213387342488    0.44766064614275    0.36889864363341
O           0.74466878359663   -0.88597666244685    0.41106656438806
C          -0.51144751728756   -1.20846419620584    0.01649856877180
C          -0.89560641856359   -2.60021836609480   -0.03525459120357
C           0.03185718547575   -3.59633087994560    0.29603224194199
C          -0.31174744010720   -4.92464084816612    0.22863170373863
C          -1.60642083415961   -5.30294658937351   -0.15273183740735
C          -2.54040485039988   -4.30581087861078   -0.47773297981852
C          -2.18703308922797   -2.98000090617307   -0.42377396919174
N          -1.84929037027162   -6.64914422817088   -0.25446710566834
N          -3.06906595937164   -7.01890220817809   -0.31146584238380
C          -3.26249437874791   -8.35187389017380   -0.50791937190637
C          -2.33074536949051   -9.38856154366661   -0.81395433930451
C          -3.08987075355975  -10.51561926100544   -0.92549855096620
N          -4.49728691843585   -8.84843815890282   -0.44702628667974
N          -4.38211152329123  -10.14685849571549   -0.69467160614267
C          -5.50130729092999  -10.95095054331311   -0.68792759128135
C          -5.70210797528160  -12.29409842188059   -0.90300086377198
N          -7.02066286232330  -12.57595205412721   -0.76978662732733
C          -7.61180269071181  -11.44999051224306   -0.48285694785924
N          -6.73271593615241  -10.42194961877687   -0.41998522545661
H          -6.88603520054985   -9.44570215325129   -0.22094557265971
H          -2.21546675580803    0.02156495399594   -0.61780555743446
H          -0.51407805468567    2.05886738103625   -0.17548353122626
H           1.79386625231005    0.87357368396164    0.65424306003248
H           1.02627619465920   -3.30493533859187    0.59809412632924
H           0.39796911533220   -5.69737468090609    0.48112161112166
H          -3.52959683001106   -4.61261436455123   -0.78256101071271
H          -2.90921499300978   -2.22094345095014   -0.68210930898484
H          -1.27405192507853   -9.27414051206812   -0.93039268596532
H          -2.83461975179778  -11.53228824315124   -1.14315955636475
H          -4.99348281688749  -13.06007445054328   -1.14102067988082
H          -8.66342194733734  -11.33851158735074   -0.31492484564805
