38
         -65.448705906757          0.000837129375
C           4.10142780405759    0.34492792453262    1.81565028758447
O           3.90802009558587    0.12569537732679    0.43851876003858
C           4.22583389508127    1.11340712463874   -0.43424429061367
C           4.71412705083645    2.36993036287314   -0.07699250560689
C           4.99692815310780    3.30166224319550   -1.05375110038777
C           4.81389045199075    3.00251012805061   -2.40692418289379
C           4.31980017351028    1.73436594071586   -2.75954485098183
C           4.02797574776033    0.81223082481631   -1.78877070655210
N           5.10319792009260    4.00190153869481   -3.30372827863345
N           5.10013967935407    3.67181334221666   -4.53984911857794
C           5.27433327963870    4.67646585389522   -5.42952481835267
N           5.50772723070973    4.38670098184699   -6.70062253737730
C           5.17394567387563    6.10814470003295   -5.26258120666120
C           4.92801854221726    6.96306698418195   -4.19374278393918
C           4.90130648299004    8.31676549764071   -4.44979036926596
C           5.10590953058186    8.81948263742762   -5.73862065598544
C           5.34237802913986    7.99037675998221   -6.81458537055634
C           5.37418732331954    6.62478241928067   -6.55931412738847
N           5.57766941280995    5.53521112376324   -7.37885127639162
C           5.83219344015894    5.50381560634084   -8.73017637572561
C           6.03539225421828    4.42742401180978   -9.55127130254207
C           6.24941705470473    4.97328031037844  -10.83863651643563
C           6.16055165889810    6.32274378227052  -10.70382225516111
O           5.90628835454405    6.65804939697731   -9.41898929265765
H           3.79889959068186   -0.57874249775120    2.30581972377048
H           3.48113519396160    1.16803662775759    2.18412551369098
H           5.15201540094344    0.54853145302734    2.04611271495574
H           4.87238389060153    2.62836513680301    0.95843346618656
H           5.37810746013853    4.27533907299400   -0.78583627127617
H           4.17693943932806    1.51358270919580   -3.80596272617701
H           3.64227716053044   -0.16363300303094   -2.03918337011692
H           4.76969374529239    6.56193327416259   -3.20572958953678
H           4.71775403729933    9.01056850732088   -3.64276852198892
H           5.07339090368206    9.88765605420570   -5.89468444705072
H           5.49147562870179    8.38218527021231   -7.80712334040378
H           6.02895954260088    3.40059228899709   -9.25537158465411
H           6.44246876535167    4.42975508325268  -11.74017625733946
H           6.25215000170384    7.12775514996568  -11.40442043499478
