30
         -47.737464557963          0.000389907391
N           1.18692646482494    0.10219135706295    0.39287011707774
C           2.54565823690687    0.09819193443680    0.18169432694813
C           3.36023439658867    1.06855531349458    0.77466972166480
C           4.72374521720146    1.03374765524152    0.60770664880388
C           5.32613389562234    0.01547981071750   -0.14225425534758
C           4.50699104154883   -0.95871402964535   -0.73448831223987
C           3.14383845801789   -0.91212540964023   -0.58045139294358
N           6.69105266697959    0.07637667164740   -0.28526619158331
N           7.25974341658670   -0.96780226362452   -0.76166780663032
C           8.59854239247194   -0.88500333631509   -0.98126860289314
C           9.44529126163810    0.21178164765878   -0.97917446847569
C           9.41022132599347   -2.02097235723299   -1.32948674229405
C           9.15035062757747   -3.37880368016488   -1.48120982283420
C          10.19611954614400   -4.21177993501051   -1.81761288859774
C          11.48946787354481   -3.71831700882330   -2.00208045020289
C          11.77303249228988   -2.37598805727214   -1.85558773424422
C          10.72294623147693   -1.53436575261948   -1.51743058827797
N          10.70345572072522   -0.17946603614115   -1.30462532764193
H          11.49944736695077    0.43111178108642   -1.39100316741834
H           0.77474943474993    0.96308807684854    0.71212296346983
H           0.62226184402551   -0.43722858190598   -0.24210714455762
H           2.90196729084533    1.85017754761145    1.36465123123754
H           5.35526171079588    1.78186953524584    1.06178890239945
H           4.97573313783118   -1.73150107979144   -1.32471290985331
H           2.51546996592765   -1.65805662362236   -1.04807670098634
H           9.20282582155426    1.23851618356709   -0.78526795224555
H           8.15079962543328   -3.75691816533662   -1.33589657616273
H          10.01927495564474   -5.27008268669102   -1.94182700519120
H          12.28272945648152   -4.40310502695975   -2.26337328800929
H          12.77366812362088   -1.99376748382194   -1.99620458297059
