35
         -61.097925301629          0.000634875695
C          -1.23662702419876   -0.07046691257584    0.01740144604939
N          -0.46633240577016    1.03889083541827    0.06289740323653
C           0.76833715145237    0.61651698691865    0.06232988565651
N           0.83808303994101   -0.73269428602692    0.02602408222407
H           1.67443233092750   -1.29174080324748    0.00093010538550
C          -0.45225271851231   -1.20839258650525   -0.00784936994109
C          -0.80247701355248   -2.60740979184990   -0.05232224746876
C           0.15455828810184   -3.61271082990053    0.13706565467260
C          -0.19451545180906   -4.94138532188589    0.07468653231585
C          -1.52233984908772   -5.31533088712828   -0.16370093883010
C          -2.48762472373834   -4.31207162920419   -0.34661691559488
C          -2.13020602177213   -2.98814763447863   -0.29441684933124
N          -1.77917904488443   -6.66145503910158   -0.26324137032030
N          -3.00844407621224   -7.00613944862292   -0.24579333389987
C          -3.25211095393119   -8.33153190290802   -0.42312416302187
C          -2.36248798104477   -9.41423979086357   -0.70574099785316
C          -3.17103223114240  -10.50610063670897   -0.79827889427268
N          -4.50624185498737   -8.77257606561076   -0.35707588898150
N          -4.44928415420851  -10.07621287355940   -0.58121010722900
C          -5.59703353733299  -10.83761887305223   -0.57538397651873
C          -6.86974393951342  -10.39385036446635   -0.35562638423725
C          -7.81398057866346  -11.43905764350091   -0.41713713567746
C          -7.25337922025615  -12.64675998300555   -0.67957876439473
S          -5.54444997615522  -12.54882858162391   -0.86153238094759
H          -2.30414883965093    0.01259530465537    0.01879416474135
H           1.63284417862164    1.24976146334300    0.08866041372219
H           1.18401293250042   -3.35433574172521    0.34310544968476
H           0.54260957257274   -5.71585425638285    0.22258021105678
H          -3.50591902027982   -4.61365645726579   -0.54042888203890
H          -2.87546577369309   -2.22340164406970   -0.44879070019790
H          -1.30087507853478   -9.35115150616764   -0.81674991381523
H          -2.95941840581185  -11.53807773694665   -0.99696355940406
H          -7.09437643485644   -9.36249657681298   -0.16067818028216
H          -8.86905693698331  -11.29507441619999   -0.27114517887758
H          -7.73189424753248  -13.60007436893732   -0.77989921560950
