33
         -62.449617764997          0.000605452058
C          -1.18606655960806   -0.11381095115007    0.06533870701908
C          -0.47631939963049    1.07507876603892    0.30211637389264
C           0.85138341628848    0.86000217009846    0.50944295433479
S           1.26299743127680   -0.79821655570513    0.41143585468151
C          -0.39480919390395   -1.23731805192569    0.08843072721391
C          -0.76855349791196   -2.61356629512671   -0.11519276109753
C           0.21247040960034   -3.60734453352858   -0.24731852729024
C          -0.13209229856932   -4.91864907980717   -0.46087305439855
C          -1.48283711449922   -5.29093095031022   -0.53372081480057
C          -2.47266581189063   -4.30242255381022   -0.39203195327489
C          -2.11926714448674   -2.99289414191713   -0.19172305877549
N          -1.73712018559399   -6.61623350616032   -0.76555689628767
N          -2.95502174771177   -6.98217539206867   -0.74757884047508
C          -3.22997288114108   -8.29980681052538   -0.84205185405848
N          -4.39408132128384   -8.72227633309860   -1.28921446160876
C          -2.44792704560516   -9.41840438227076   -0.35593054906066
C          -1.21550120857462   -9.68247577108742    0.22486260454046
N          -0.87838450231329  -10.92824478116811    0.50847332259087
C          -1.74435894154883  -11.89985095979856    0.25167285849153
N          -2.95176083616398  -11.78721873818684   -0.27204565804779
C          -3.27665291136735  -10.54163683762059   -0.57357237952448
N          -4.43539390981807  -10.07084935019944   -1.14164711043388
C          -5.48118891076368  -10.79418538016401   -1.52553192345064
N          -6.37433705695366  -11.42962111363798   -1.85160227439703
H          -2.24272998879149   -0.13216593656063   -0.12946399073511
H          -0.93101569775065    2.04926372170185    0.31808721887493
H           1.61821469752094    1.58074691724712    0.71376132150865
H           1.25414830380489   -3.32676255924777   -0.18846207802131
H           0.62217666868437   -5.68268423746717   -0.56844367277872
H          -3.50824470513876   -4.60009897995069   -0.45830035800434
H          -2.89030356607406   -2.24619019253441   -0.08361849111976
H          -0.49849584073572   -8.90686956484553    0.45678256725976
H          -1.42899864934124  -12.90237763521102    0.50537619723773
