35
         -57.955720097885          0.000731884286
C          -1.15896715027717   -0.03109097949563   -0.29151637167989
C          -0.27672503288438    1.04182718306768   -0.04644821381761
C           0.89135823562154    0.47767981765352    0.36768517285938
O           0.79118116472331   -0.85822738946736    0.39433636629827
C          -0.46216524407492   -1.18286757130420   -0.00726118716278
C          -0.84529850405588   -2.57576409495739   -0.06194598852364
C           0.07495546939802   -3.57418161243737    0.27999549843018
C          -0.27630753562489   -4.90154562944679    0.22963736655601
C          -1.57296365453161   -5.27823735324691   -0.14374519696857
C          -2.49491754290208   -4.27893539359044   -0.49233473411722
C          -2.13429924691137   -2.95430914446059   -0.45548108294615
N          -1.83921373861170   -6.62224763567783   -0.23331503140090
N          -3.06827194581297   -6.96913572447641   -0.18642148848969
C          -3.34598330492640   -8.28212916482218   -0.38556795263401
C          -2.52286188785274   -9.33356887964718   -0.76437147967870
C          -4.66911188722619   -8.83278907906668   -0.25153556637926
C          -5.90294123862211   -8.29598024500292    0.09943840926471
C          -6.99530022685341   -9.13662841338869    0.13087767881017
C          -6.87919184976300  -10.49351987216817   -0.17779821372363
C          -5.66560554557240  -11.04943587316309   -0.52761599651837
C          -4.56431881441023  -10.20636187530294   -0.56094579074352
N          -3.25183259464216  -10.46904638289688   -0.86869381081965
H          -2.89112975243918  -11.37079786719943   -1.13561429484975
H          -2.17060971794210    0.04406236714681   -0.63277335918773
H          -0.48275469974329    2.08629029500656   -0.16122057043069
H           1.82974973736885    0.90501952192542    0.66129682958281
H           1.07084983452156   -3.28620477029619    0.58105593351607
H           0.42939856511492   -5.67331249437765    0.49663256692931
H          -3.48468730749817   -4.58161963822131   -0.80008682362020
H          -2.85165517807978   -2.19593622377144   -0.72928225703534
H          -1.47001095709674   -9.31233966906738   -0.96863620082012
H          -5.98765703959027   -7.24802843436657    0.33876502261378
H          -7.96476286411928   -8.74397836805871    0.39954519968517
H          -7.75830608155095  -11.11946246666370   -0.14102630473171
H          -5.57573246313291  -12.09909693875789   -0.76554812826666
