30
         -51.892306547242          0.000315204083
C           1.15211905065191    0.01482453305015    0.46291456817615
C           2.62635261910367   -0.00360702750035    0.20918646939577
C           3.38750953327320    1.15079471525319    0.37796020418932
C           4.74077134934669    1.15019775494485    0.12057949782034
C           5.37514406638570   -0.02293909102682   -0.30443367656921
C           4.61223180014852   -1.18670307611569   -0.47637003202070
C           3.25964085829778   -1.16703893747487   -0.22427528566486
N           6.72413619202891    0.06478064599755   -0.56348691009413
N           7.32907702058423   -1.04049238053210   -0.77527376073385
C           8.64047673925260   -0.94702295047522   -1.10246011853610
N           9.35365185546808   -2.06251609931448   -1.22322910093546
C           9.46878853753971    0.19557015199400   -1.40821258632921
C           9.29173144230301    1.57613514289351   -1.46296565193135
C          10.37614056143054    2.34874114324094   -1.81494194123424
C          11.62155583263540    1.78206570863956   -2.11607456666381
C          11.82780486584747    0.42128418137977   -2.07612007870779
C          10.73417952128446   -0.35735894584057   -1.71724400358141
N          10.55372537915542   -1.69310963779004   -1.57600352017236
F          11.51849033039547   -2.64074979899870   -1.75739126516051
H           0.90854453741749    0.68131802731202    1.28737389254858
H           0.78337738368505   -0.98244416058495    0.69034376690327
H           0.62812801780426    0.37474524173233   -0.42359899993072
H           2.90516447238435    2.05777928775554    0.71385217315544
H           5.33379610493424    2.04171869495877    0.25499207962592
H           5.11144236532847   -2.08229443773850   -0.81327630427645
H           2.67584923271865   -2.06629796830830   -0.36227554063698
H           8.33061130597203    2.00559256628950   -1.23244103246717
H          10.27165892226676    3.42218511069030   -1.86287317807864
H          12.43930752198116    2.43208097715510   -2.38821097596278
H          12.78176258037101   -0.02371937158358   -2.31055412212869
