37
         -61.359829315087          0.000854667969
C          -0.59062187256475   -0.08268284165291   -0.56426177566030
C           0.03812550919729    0.99854302974894    0.08843081005400
C           0.55903095139015    0.48825331208011    1.23847979500670
O           0.29747146301362   -0.82206744018775    1.33875688208798
C          -0.40686333581619   -1.18445974310178    0.23889478689915
C          -0.82143242503473   -2.56180400620831    0.09033824186799
C          -0.50765208363029   -3.50249105981689    1.07762549029856
C          -0.89185455476547   -4.81569568131843    0.94337892319065
C          -1.60885626230968   -5.23565082427340   -0.18398342454474
C          -1.92464007482512   -4.29205452377026   -1.17437929695389
C          -1.53749374742196   -2.98167125686288   -1.03748516523881
N          -1.93599661091241   -6.57127256694703   -0.23893230812740
N          -2.65423723989520   -6.93314911900522   -1.24055856126561
C          -2.97192338607875   -8.24366970736437   -1.31772420944464
C          -3.73066427464467   -8.75988609822367   -2.36178663569381
C          -2.66363421267042   -9.36189258017675   -0.45876105267270
C          -1.94276148269227   -9.50402287493074    0.72219400477594
C          -1.85276184185140  -10.75952892534427    1.28620117014273
C          -2.46678987718182  -11.86844031932574    0.70069716327464
C          -3.18770637091567  -11.75528551475901   -0.47032287823686
C          -3.27678177741491  -10.49338765898260   -1.04186850846664
N          -3.90149857446502  -10.08586959368982   -2.19729139584790
N          -4.66464303921220  -10.92497770682491   -3.00767001429283
H          -1.10764208136552   -0.04471062927504   -1.50073071230371
H           0.09425263955697    2.01289646211986   -0.25025274503784
H           1.11608321974625    0.93976012792994    2.03567293942959
H           0.04304090889420   -3.18213773159322    1.94927970572278
H          -0.65277909473820   -5.54411174076771    1.70314850418566
H          -2.47389674393182   -4.62533862320825   -2.04197655643008
H          -1.78516414088195   -2.26577234510428   -1.80653521972098
H          -4.14982265465784   -8.23683223936587   -3.20022066306441
H          -1.47222339694552   -8.64309216379549    1.16823541217059
H          -1.29667150688951  -10.89480921535469    2.20208238552208
H          -2.37818804045117  -12.83359170574141    1.17697329961995
H          -3.67436545964677  -12.61019237176548   -0.91524694453803
H          -4.13075055684945  -11.75784120125944   -3.25102352645253
H          -4.93208797113795  -10.42977292188096   -3.85401792025518
