34
         -54.963698494846          0.000575844780
C           1.21771048407425    0.32347193881870   -0.13451619991795
O           2.31063254775181   -0.19663005897752    0.58318634145000
C           2.98590898608404    0.61994864203332    1.43211743919776
C           2.68259741808509    1.96101798879333    1.66095933148598
C           3.44524601015701    2.69776263117751    2.54317123770919
C           4.51788507416414    2.11727250181451    3.22506662629328
C           4.81626018634468    0.76413791535689    2.99094265281727
C           4.06419670519006    0.03354062258799    2.10796661192654
N           5.23092369121881    2.93980459909822    4.06579128732371
N           6.12539501218369    2.37254238953164    4.78441894665541
C           6.86580857045904    3.19615230223912    5.56448059098203
N           7.74052581068729    2.66900114771687    6.41372463986960
C           6.92462785947349    4.63528517397513    5.64054506366846
C           6.28145945036516    5.69801346933546    5.01287237947139
C           6.64549322017214    6.97448213216900    5.38030135380071
C           7.63079029927999    7.20769183953103    6.34750137967412
C           8.28383621472536    6.17340382134706    6.97996410972498
C           7.91724343083644    4.88154508558945    6.61488411602757
N           8.35837347818949    3.66039734074466    7.03740922514002
C           9.35654253578260    3.39047772475035    8.02841739733952
H           0.84242526599119   -0.50133249084639   -0.73832155755050
H           1.52259178009337    1.14353502275838   -0.79264138076923
H           0.42478278133374    0.67021379784209    0.53598323602667
H           1.85685215219506    2.43657073255288    1.15486255716052
H           3.21589915076843    3.73632707541625    2.72664287145060
H           5.64985625342623    0.32548862074158    3.51731617558363
H           4.28131463991823   -1.00503850197344    1.91114707080229
H           5.52573543171087    5.50896025023950    4.26791884518854
H           6.16447676313247    7.82235592027805    4.91524794445506
H           7.88405539438140    8.22700163567733    6.59981872830456
H           9.04610289653172    6.35560025477841    7.72215122729668
H           9.06773437500843    3.82110089761809    8.99012681073571
H          10.32010249410209    3.80836633632651    7.72670595477182
H           9.44275363618152    2.30999124096007    8.12429698590235
