31
         -52.225754603073          0.000926666800
N           1.37122842059882    0.25042938942082    0.66472882759094
C           2.51172222284942    0.17251401441774    0.55724455546048
C           3.91008059093899    0.07071830815138    0.42241290362634
C           4.75254681386241    0.78024515111767    1.28741459310925
C           6.11530207587418    0.69783936590232    1.14334477489361
C           6.67762615990484   -0.11815980611961    0.14807797210632
C           5.82451123467937   -0.83287671831247   -0.71108133378634
C           4.46066550949777   -0.73441284497351   -0.58012853673604
N           8.02241238895656   -0.05507039796247   -0.05553577338862
N           8.65916373687539   -1.09124873231319   -0.43035936029012
C           9.94329675373837   -0.92870021600997   -0.81333235874160
C          10.76409185803993   -2.00603685267602   -1.13450651427714
C          10.73697676931163    0.25712175069341   -1.02784350216719
C          10.49002537801882    1.62057691466948   -0.90789777200083
C          11.50866077482342    2.49780511424653   -1.21749642338596
C          12.75984997289204    2.04399384476498   -1.63910857719309
C          13.02978272323178    0.69685354323095   -1.76850195119937
C          12.00582621543501   -0.18786398680532   -1.45999338900699
N          11.97422437409484   -1.56382357699504   -1.51596395283793
N          13.07731394901346   -2.35208919934300   -1.82665111599657
H           4.31828989676557    1.39640713280275    2.06110813845924
H           6.77556204441975    1.23768440815117    1.80472381580921
H           6.26918445899908   -1.44330438539971   -1.48309421503543
H           3.80422875165900   -1.28027034095528   -1.24268522200000
H          10.52921972798617   -3.05259762694169   -1.09356370557965
H           9.52318377574249    1.96752330974641   -0.58032730917028
H          11.34070901136049    3.56089162935847   -1.13187221833668
H          13.53203031976732    2.76295231408438   -1.86812820937678
H          14.00065397140952    0.34722534027746   -2.08521493373122
H          13.50790421253086   -2.03319408726220   -2.69121881377328
H          12.79384590672575   -3.32251275896726   -1.91802039304188
