28
         -52.844527652868          0.000705974831
F           1.06463750644377   -0.03009831183163    0.02874838167979
C           2.40536279013009   -0.05070720169354   -0.11326993602984
C           3.14750319955674    1.00650666041844    0.38864948502446
C           4.51715541311814    0.98949171237963    0.23087631440560
C           5.14136779224866   -0.08865930261111   -0.40699103643212
C           4.36423707488058   -1.14480048103662   -0.90449276260863
C           2.99426549616456   -1.12490998249619   -0.76261492342118
N           6.50851898215565   -0.00666759453367   -0.56521965434177
N           7.10945478359071   -1.08989463198622   -0.85818347905586
C           8.44444269369131   -0.98367524231148   -1.09526851636960
C           9.27629360744930    0.17066171777930   -1.22850453190347
C          10.51602207158254   -0.32807384216597   -1.49230333312757
N           9.16135111929861   -2.09176038863090   -1.27367936535073
N          10.40022734866885   -1.69027569278461   -1.50608580513925
C          11.40861172874038   -2.60534751866421   -1.71933211497776
C          11.37448689649302   -3.97235052455837   -1.73115633210484
C          12.70470389644924   -4.37630971475554   -1.99488829785438
C          13.43445866006452   -3.23581498115269   -2.12137010390043
O          12.65314733979390   -2.14805074518585   -1.95500274986664
H           2.64657193676311    1.82215041175569    0.88602528320205
H           5.12848090084820    1.79351555102338    0.60939006022560
H           4.86559425991192   -1.95856477324240   -1.40549329966481
H           2.37576237672690   -1.92266941524401   -1.14373384911146
H           8.96483067386628    1.19002701302299   -1.14236145363984
H          11.45994526494814    0.14630987378181   -1.66900609203587
H          10.51163641710061   -4.58250752037540   -1.57107957586051
H          13.06350845905530   -5.38117129194136   -2.07748690032347
H          14.47238131025884   -3.06133378295955   -2.32069541141751
