31
         -51.787471708135          0.000558155589
C          -1.14188727196777   -0.03571230447469   -0.27364303916720
C          -0.25605093288744    1.03404571792447   -0.02892962983768
C           0.91286898151135    0.46506530862885    0.37747767008380
O           0.80977759304529   -0.86998745475995    0.39975649174288
C          -0.44619015339404   -1.19031373438195    0.00321629190149
C          -0.83264562400907   -2.58182588833683   -0.05525281246238
C           0.08937020521326   -3.58244864379858    0.27596090683816
C          -0.26423469477635   -4.90927222570358    0.22128583043290
C          -1.56460762043569   -5.28010924009650   -0.14417086122178
C          -2.48943854075800   -4.27970610644480   -0.48080330542487
C          -2.12573126692632   -2.95592343336676   -0.44131041765022
N          -1.83238390625650   -6.62516578873273   -0.22889715628310
N          -3.05786768376864   -6.97064561894090   -0.20309319051112
C          -3.30346722842090   -8.29822998897647   -0.38117131746730
C          -2.42819831883179   -9.37277368826849   -0.70775204190060
C          -3.24581101804431  -10.46635248403017   -0.77105239259269
N          -4.55499765477152   -8.74832639420684   -0.26464094993602
N          -4.50458964689872  -10.04203032207706   -0.49657088085735
C          -5.69515875290874  -10.83883631846164   -0.44516522781958
H          -2.15499022484433    0.04334311991809   -0.60952484492442
H          -0.45990020225680    2.07937466267980   -0.13902557553892
H           1.85368320323163    0.88931325386297    0.66810148371778
H           1.08757422118420   -3.29679719865991    0.57135285504290
H           0.44177165780146   -5.68377890610098    0.47898371975194
H          -3.48204306222612   -4.58185091405637   -0.77919789059970
H          -2.84321786193183   -2.19462294075579   -0.70609687142718
H          -1.37252363832229   -9.31026995073913   -0.86641420058002
H          -3.03887088107548  -11.49622884875658   -0.98515665463550
H          -6.51617169992745  -10.18655616522467   -0.15582219256646
H          -5.58878921613179  -11.63995240316317    0.28857606983193
H          -5.90715876021530  -11.27848510049967   -1.42189986593966
