25
         -42.190299214029          0.000551741758
C           1.75671000118760   -0.99108436167336    0.47817100173630
O           2.31208421636206    0.02423294914521   -0.32334795490726
C           2.94138285149514   -0.31961477703080   -1.47486976975467
C           3.46599734956038    0.74277696537954   -2.22064875873557
C           4.11498398492958    0.50848528437807   -3.40750949428740
C           4.27455526459537   -0.80086774786529   -3.88132567684252
C           3.74972954692533   -1.86005258384488   -3.13085313130173
C           3.08733224364389   -1.62497146053804   -1.94646239970944
N           4.91390871338846   -0.94815084065596   -5.09176598557594
N           5.20587291267059   -2.14074621503917   -5.43526729421949
C           5.78073075451681   -2.27478771399412   -6.66512364339698
C           5.96161116366442   -1.32346977700761   -7.71162412476540
C           6.55802555015379   -2.03021400611714   -8.71680967707660
N           6.24429875911628   -3.46628439511808   -7.04061791120465
N           6.70802607009395   -3.30010989165210   -8.26522030748811
H           7.11853786100992   -4.08242360646632   -8.75117002291907
H           1.32338945758768   -0.48294567903083    1.33805713290428
H           2.52066370149820   -1.69507765875959    0.82167950627912
H           0.97069578853836   -1.53651298971779   -0.05317489594881
H           3.34100449111044    1.74325789555903   -1.83710201083467
H           4.52095598238320    1.32257667298010   -3.98737067117035
H           3.87040501959653   -2.86373268450184   -3.50929910093050
H           2.68530932907029   -2.46032869850254   -1.39419234923869
H           5.67447007979037   -0.29384392865990   -7.68887836416923
H           6.88162890711168   -1.73972075126805   -9.69631409644385
