34
         -57.869813212159          0.000471144768
H           1.35537433654324   -0.25089130513727    0.79045830743173
C           2.42093597797066   -0.21636701965386    0.61746946995801
C           3.17949432221271    0.80393220812878    1.17234052441956
C           4.53852600551587    0.86026077778748    0.94411764397984
C           5.15967451838726   -0.12366837244114    0.16631628807118
C           4.38669879778529   -1.15185643467715   -0.38999310223242
C           3.02766496400090   -1.18943778827504   -0.16472619116198
N           6.50996248566097    0.02835041307838   -0.05712340793264
N           7.13113380358579   -0.99281393750881   -0.50726533629441
C           8.43233383851603   -0.80498016331122   -0.83012638766879
N           9.17552508719442   -1.85742439729024   -1.14210293233572
C           9.21510641988954    0.39887991261913   -0.96466936541208
C           8.96870428885681    1.75670640794855   -0.78769299035015
C          10.00585187828100    2.63103410985202   -1.02450078845163
C          11.26328736948039    2.17554893589381   -1.43486841565687
C          11.52696696356366    0.83613729407214   -1.62367918100973
C          10.48562089395070   -0.05285581184582   -1.38313504921001
N          10.39578118021667   -1.42316314232758   -1.46634297328991
C          11.34511261072877   -2.36148151658886   -1.81125661956188
C          12.65879912496829   -2.31856460093876   -2.21802326513133
N          13.10633952324757   -3.58050398235851   -2.42637834382837
C          12.10892773601304   -4.37597696406970   -2.15967089942592
N          11.00768264172719   -3.68737899789631   -1.77933636098856
H          10.09176083960129   -4.01583179142856   -1.51514519384816
H           2.70313268541610    1.55916432790317    1.78008846495651
H           5.14588792435371    1.64459560012750    1.36952883487304
H           4.88059551481400   -1.89267033577110   -1.00027897398855
H           2.43121053050024   -1.97880259860984   -0.59904272136219
H           7.99406122967481    2.09218718792996   -0.47241095481327
H           9.85292444977887    3.69172372550836   -0.89301071506561
H          12.04827254217893    2.89576289125501   -1.61098246071522
H          12.49793353956992    0.49961805500165   -1.94502134846510
H          13.30555660237923   -1.48196813136175   -2.37584671658388
H          12.14318937343727   -5.44396455561846   -2.22838883890694
