35
         -61.910656312944          0.000789526087
C          -1.15664938799454   -0.09024298118952   -0.26518602262017
C          -0.32098586932930    0.97975336013586   -0.08063260196217
C           0.91347981407812    0.40616131771353    0.27263230030277
N           0.83262990167050   -0.90326846934686    0.30186905740852
N          -0.42748617205525   -1.21212574165302   -0.02580700559589
C          -0.83150125565015   -2.54427634026498   -0.07918080571927
C           0.10187112550788   -3.53699395558209    0.23109457658072
C          -0.25337271786417   -4.86364560196300    0.17835573841262
C          -1.56040640691086   -5.23338526119566   -0.16461473153135
C          -2.49219757471093   -4.23198152241298   -0.47462704411678
C          -2.13160008863823   -2.90528988896991   -0.43861456435681
N          -1.83040149055260   -6.57838910690290   -0.24742417259813
N          -3.06063844582755   -6.91298638060401   -0.24799500268630
C          -3.31343508524693   -8.23722310016054   -0.42916812123356
C          -2.43593828701656   -9.31305891969443   -0.76799111679159
C          -3.24629167747856  -10.40452131639717   -0.85026560449100
N          -4.56509952608247   -8.67877960874426   -0.32173702374860
N          -4.51517005743893   -9.97795491521429   -0.57164834377248
C          -5.65645716782373  -10.74910134739565   -0.53262351769081
C          -6.94760831343408  -10.40614848303684   -0.24065764373783
C          -7.68791973093350  -11.60652390203128   -0.35568783784238
C          -6.79880602018236  -12.57418724646804   -0.70471801610940
O          -5.55498606835267  -12.06203868858737   -0.81553019444051
H          -2.19005902467368   -0.11767416162571   -0.54075214965665
H          -0.55473488656659    2.01939868360287   -0.18247965175111
H           1.83801201590190    0.89723327498564    0.50282836596983
H           1.09929360304989   -3.23174070696992    0.50355037742476
H           0.45857213273891   -5.63793089321017    0.41777539607372
H          -3.49094738837180   -4.53210416023094   -0.75297589116935
H          -2.86252738668021   -2.15298943711008   -0.69074198569128
H          -1.38003205256464   -9.24482986869311   -0.92314111901452
H          -3.04929406271412  -11.43278444616875   -1.07622332151114
H          -7.29714220956519   -9.42972840242247    0.01784235473953
H          -8.73958155369280  -11.72718284228627   -0.19826386112799
H          -6.91023868459477  -13.62194893990569   -0.89767081594543
