29
         -52.162212625324          0.000618343415
N           1.13640108366399    0.02072681983539    0.45748826718611
C           2.48265104358538    0.03170283151283    0.23368951858693
C           3.30436035629503    0.96690059521685    0.87711072249910
C           4.66397193374127    0.94469063075867    0.69117329437287
C           5.25582634818312   -0.01261251441639   -0.14667897319742
C           4.42947106056738   -0.95088925546283   -0.79169180036168
C           3.07256610128878   -0.92708005364693   -0.60381062810853
N           6.61669956491540    0.04428664501098   -0.27414069719781
N           7.15454720366815   -0.83077394169720   -1.04361854757605
C           8.50313526148402   -0.75748348192837   -1.15517941269639
N           9.13190477832351   -1.62364167475740   -1.94252238751961
C           9.46357519588272    0.13552689222358   -0.54894141136160
C           9.41429999949907    1.21034508752127    0.33549951900820
C          10.60228630538325    1.81812298687389    0.67650715133218
C          11.82973975466563    1.38294891835251    0.16030260114712
C          11.91311416773191    0.32314914265561   -0.71474103564313
C          10.71390452280799   -0.28996128079204   -1.05779170609845
N          10.40382439031285   -1.32991210136271   -1.86797983055914
F          11.30407989510985   -2.06908599514193   -2.58194854492244
H           0.71377768933733    0.81568513032886    0.90301703154253
H           0.55153043170946   -0.53256848890732   -0.14376443100276
H           2.85232379450073    1.70604971892813    1.52318264615160
H           5.29989613339033    1.66413877324806    1.18348131701991
H           4.89507677486474   -1.68107495781174   -1.43538099594944
H           2.43852501093807   -1.64843702765627   -1.10044692794604
H           8.46638660093782    1.53965141696711    0.72819847648008
H          10.59609368156046    2.65419994321462    1.35976229984968
H          12.73291448316616    1.89403077297821    0.45840947448204
H          12.85390643248523   -0.01888553204606   -1.11632498951835
