32
         -57.929885814649          0.000461470766
C          -1.12500308877426   -0.11530770717671   -0.06780355939819
C          -0.36673704037759    1.06686349060485   -0.00504016414279
C           0.96531037920899    0.82794549238007    0.12735461118015
S           1.32017783292378   -0.84678453413466    0.18220591454495
C          -0.36774342624380   -1.25734202741164    0.01912758866915
C          -0.79333670678949   -2.63538863151093   -0.00574602917706
C           0.12201355373461   -3.66880361264483    0.23522935529266
C          -0.27509831732337   -4.98360280173046    0.22930272306915
C          -1.60925660025959   -5.31780143801803   -0.03921625447414
C          -2.53114433356648   -4.28818513888738   -0.28917022292681
C          -2.12983356745599   -2.97607949507705   -0.26673783723932
N          -1.91844913656233   -6.65495909938216   -0.00396149103968
N          -3.08471739221510   -6.98634477958463   -0.37426868454483
C          -3.41861147939665   -8.29250357276728   -0.45075620586445
N          -2.61740359235135   -9.28045193967646   -0.82644156638887
C          -4.76385131558357   -8.78244675882186   -0.31740880691128
C          -6.03537301528054   -8.34301484757068    0.02330180226519
N          -7.04883976085652   -9.19061151660610    0.02183117420475
C          -6.82014699525806  -10.45993883911623   -0.29796327627825
N          -5.67355520171796  -11.01750028840357   -0.63370278150946
C          -4.65606810997854  -10.16352623953718   -0.63836484738513
N          -3.36155485498799  -10.38975943015715   -0.94507633566173
H          -2.94012678445151  -11.24605342804983   -1.26844458224259
H          -2.19525026864356   -0.11481762641910   -0.16477317387199
H          -0.79269006333840    2.05293251581961   -0.05611227848816
H           1.76595263139146    1.53726551715834    0.19702227810574
H           1.15383125698891   -3.41888174942877    0.43645567671023
H           0.42663528324603   -5.78113610677924    0.41627052878547
H          -3.55917015223607   -4.55338538624107   -0.48561968465623
H          -2.85163809315841   -2.19770743907764   -0.45982764955884
H          -6.25325710395969   -7.31759061481015    0.29015402971491
H          -7.68057453672691  -11.11530196694212   -0.28048025078254
