37
         -60.558782538300          0.000756221331
C          -0.83767405142710   -0.14128284371262   -0.32573773205243
C          -0.28597882852555    1.05956239362835    0.15676092342840
C           0.59067166928357    0.86102908698589    1.17575225485783
S           0.75988432501319   -0.80003440192872    1.56718372248037
C          -0.37903813085379   -1.25752595643254    0.32728199612831
C          -0.71958011927230   -2.64338483751162    0.11056922989131
C          -0.13252549264152   -3.65209086947355    0.88537099870382
C          -0.46249653830720   -4.97254070979451    0.70072854509309
C          -1.39005908315301   -5.33913285547593   -0.28337602722715
C          -1.97817141853078   -4.33417435546310   -1.06732392381677
C          -1.64953355199520   -3.01611376726549   -0.87112453375358
N          -1.71921087955876   -6.66948658310599   -0.36423205307073
N          -2.38213061640225   -7.03022085935792   -1.39765298922590
C          -2.77857441557565   -8.32385851938547   -1.42317814228690
N          -3.44990209526049   -8.77158453991056   -2.47916407225036
C          -2.62461193305458   -9.38754114762324   -0.46086618282709
C          -2.03613185944561   -9.52709175104356    0.79239737063360
C          -2.10877063796839  -10.76119697088244    1.40011065765063
C          -2.75171814594984  -11.84462687756620    0.78912716663199
C          -3.34390727722964  -11.73062235381617   -0.44899129887575
C          -3.27158966358892  -10.48663015002833   -1.06821267143149
N          -3.74064606674337  -10.04486569107970   -2.27264909437526
C          -4.47481084005183  -10.79441185938558   -3.24725340135439
H          -1.54965438871207   -0.17119640926142   -1.13015986480723
H          -0.53157820861138    2.02959935133962   -0.23769258741206
H           1.15107107353166    1.59033477229812    1.72630871410262
H           0.58732201679924   -3.37812863432512    1.64368875917738
H          -0.00708947281501   -5.74675854139389    1.29883036243567
H          -2.69891608251469   -4.62748287672083   -1.81559780632696
H          -2.11656241377752   -2.25814631502196   -1.48085251363664
H          -1.54464631019731   -8.68743934039610    1.25643015545334
H          -1.66154867048706  -10.90515771235375    2.37249099262339
H          -2.78264785408058  -12.79272344743479    1.30581141447056
H          -3.84119405127125  -12.56644067570131   -0.91722356130477
H          -3.90992444573952  -11.67677410691178   -3.55489744887540
H          -4.63905902059887  -10.14838798155250   -4.10686922422380
H          -5.43822652028657  -11.11248166293631   -2.84198813462608
