21
         -34.955213509774          0.000639002562
H           1.11401367374461    0.11208397511484    0.03476863504131
C           2.19166615455355    0.11447503878740   -0.03805822319353
C           2.87726522182449    1.31778447803172   -0.11976047023118
C           4.25279723456444    1.32638368653675   -0.22628862771863
C           4.96094013186149    0.12035349845708   -0.22961535211109
C           4.26290908236930   -1.09101362975373   -0.14659385782550
C           2.88722577815207   -1.08633400121564   -0.05596576487750
N           6.32956930136685    0.20405493149243   -0.38878316894777
N           7.00255030767745   -0.82274947211777   -0.06244298402873
C           8.34507992648224   -0.75164275302659   -0.29756610304792
C           9.12046388985202    0.24180446548283   -0.96398721753611
C          10.40020326383261   -0.23333722327589   -0.91272877762586
N           9.12862591166580   -1.74729725801814    0.11546151072279
N          10.34961769976282   -1.41969785941156   -0.25705147259396
H          11.11795399424044   -2.03660609050436   -0.04186330081499
H           2.33207846824799    2.25034227759984   -0.10622860224175
H           4.80418594345682    2.25197311653772   -0.28901998793550
H           4.82701752073464   -2.01122260900204   -0.16812799426944
H           2.34813781231183   -2.02101885423236    0.00193105175567
H           8.75417543937516    1.14562239799317   -1.40231296052462
H          11.32339324392343    0.16711188452425   -1.28105633199569
