34
         -61.820629597292          0.000910940829
C          -1.17691336276916   -0.03740526472887    0.05533162550596
N          -0.38643266595733    1.05700846825327    0.09892144965353
C           0.84047739930523    0.61326066587700    0.06960801305481
N           0.88620947362560   -0.73622626308687    0.02004879005179
H           1.71103557611655   -1.31032609755731   -0.03016258041104
C          -0.41286347658004   -1.18845976745915    0.00380875381389
C          -0.78739138718684   -2.58024162016209   -0.04882089445267
C           0.14020922624251   -3.59991139951363    0.20059123063688
C          -0.23331239740846   -4.92164748440796    0.14323362204348
C          -1.55113170888045   -5.27412458243199   -0.17567503433838
C          -2.48763878318445   -4.25503562438761   -0.41851802753490
C          -2.10938421278103   -2.93802338433946   -0.35285121062530
N          -1.83185437331842   -6.61667544363104   -0.20532782012566
N          -3.01131732191195   -6.94168697747641   -0.59115040101932
C          -3.26833289590967   -8.26769248073352   -0.60261841841137
N          -4.46801118521103   -8.70536027986884   -0.98392588968909
C          -2.43362815995436   -9.39373387682276   -0.27974475648825
C          -1.14121218719342   -9.69828140190561    0.13583193160897
N          -0.77578327873976  -10.95726872319575    0.28340177283266
C          -1.65698722062086  -11.92025528246294    0.02271903533262
N          -2.90528103519685  -11.78689531623395   -0.37521215671202
C          -3.27298114177323  -10.51507197707711   -0.50828856734714
N          -4.46627761761764  -10.02370150171901   -0.91934924121888
N          -5.61164272817045  -10.74788141937749   -1.16230873084431
H          -2.24301633115659    0.06153880875593    0.08162493078265
H           1.71576087867106    1.23167848868774    0.08397736506662
H           1.16073883341701   -3.35610382703519    0.46062006426442
H           0.47923711773943   -5.70875126613635    0.33652246078556
H          -3.50146397714288   -4.53952629477533   -0.65521123307398
H          -2.83057337588360   -2.15963591473255   -0.54805429388724
H          -0.40245595310897   -8.93740540418564    0.34450193709239
H          -1.30222914591896  -12.93428320986416    0.14829341848453
H          -5.37847760054553  -11.64351770251633   -1.58045120088071
H          -6.24281498099543  -10.19814664374920   -1.73683594395036
