34
         -61.869340933682          0.000653671232
H           1.17841050026662    0.18470732706954   -0.17379958294971
C           2.25536295256238    0.11808625992565   -0.22100136174982
C           3.03568494836321    1.14236282719177    0.29486882409350
C           4.41181761455587    1.05895060582416    0.23924081452783
C           5.02340402457251   -0.05571492392253   -0.34498463240227
C           4.22784134337747   -1.08634609432370   -0.86494229382013
C           2.85451585796854   -0.99426899961345   -0.79713440687660
N           6.40312375590585   -0.04735767885451   -0.35596412256161
N           6.97079196186483   -1.03642408500190   -0.91633251530880
C           8.31048654341045   -1.03365018280553   -1.06158849024800
N           9.07586136555201    0.04351962505579   -1.20376180698978
C           9.09874021104446   -2.21710011957750   -1.25362496773110
C           8.96855493627800   -3.60218805300141   -1.24824832719637
N          10.01028293114306   -4.36809895207199   -1.47599875887994
C          11.20696885296132   -3.78900039010500   -1.70253304925419
N          12.23662914542771   -4.62760887730927   -1.90920910464240
H          13.14150151476422   -4.25134724915710   -2.12162570229459
H          12.06124970892623   -5.61444603460997   -1.93281818015537
N          11.46967721563948   -2.48114694440252   -1.73293437093466
C          10.40416442136729   -1.72952041528579   -1.50582483801408
N          10.32560013684203   -0.37038917752126   -1.48143605956374
C          11.32269982507779    0.54493658877511   -1.72655623785463
C          12.65426238220924    0.41298958500859   -2.03920332873688
N          13.20328147211282    1.64533139529993   -2.17050227411347
C          12.24679219071811    2.50273831936593   -1.94740723059158
N          11.07158366378568    1.88684436910203   -1.66891649469201
H          10.16845295285639    2.28032617851745   -1.45671560626255
H           2.56493787147168    2.00527640094590    0.74249171750115
H           5.04007474121831    1.84236658172381    0.63374068278881
H           4.71394450270734   -1.94308194287024   -1.30679793706147
H           2.24054605031683   -1.78972843904309   -1.19442208946343
H           8.02630736423874   -4.10189543888784   -1.06862239832924
H          13.22084607735372   -0.48433175789497   -2.16892273436597
H          12.36006096313866    3.56722969245381   -1.97676313586680
