31
         -51.440038755943          0.000559974236
C          -1.18135765011477   -0.05505593405651    0.01249367831285
N          -0.39313200539504    1.04256022760661    0.04215040446008
C           0.83431287517566    0.60061732273856    0.02784209320616
N           0.88206652819133   -0.74979042385165   -0.00262483571918
H           1.70742524586745   -1.32404796250748   -0.03391125690164
C          -0.41593906614181   -1.20488144165588   -0.01700974269710
C          -0.78712482607390   -2.59947494694991   -0.05109182081290
C           0.15344308133626   -3.61634484484932    0.15492525695619
C          -0.21380238525201   -4.94065715476312    0.09950536457068
C          -1.54435266002330   -5.29768088203610   -0.14602821699899
C          -2.49329184430818   -4.28311230795258   -0.34447596137410
C          -2.11750991722888   -2.96343083768842   -0.30055228131943
N          -1.82020556579994   -6.64158846780997   -0.24753312776200
N          -3.04995990289843   -6.97362787354954   -0.19565389524819
C          -3.31461000119852   -8.29643881200626   -0.37524630047675
C          -2.45085357545447   -9.39164149594695   -0.66269238043324
C          -3.28772468577982  -10.46933731593905   -0.74206593388781
N          -4.57809782795733   -8.72085777782834   -0.29487388310334
N          -4.54633717111465  -10.01691800624759   -0.51474410307679
C          -5.75481588568443  -10.78789396732651   -0.50031571473265
H          -2.24766963024409    0.04366492724790    0.02689479742335
H           1.70888127733417    1.22005695992448    0.03912347282835
H           1.18423907267552   -3.37085717283251    0.36967783914379
H           0.51125101108504   -5.72391439017775    0.25996114721250
H          -3.51390263896223   -4.57142828348495   -0.54525111240724
H          -2.85065694376907   -2.18979028934727   -0.46821496923683
H          -1.38919972288508   -9.35165804722378   -0.78450088450863
H          -3.09487370611295  -11.50538641599544   -0.93892404043976
H          -6.57308106940349  -10.11327188929393   -0.25826200823880
H          -5.69740078124750  -11.57710560256398    0.25155459004162
H          -5.93390962861554  -11.24105689363290   -1.47741617478009
