25
         -42.648289396909          0.000895584062
C           1.06184417816432   -0.00703878129606   -0.06203220478187
C           2.55614604476626   -0.00959813106323   -0.11450711464769
C           3.27488426023518    1.17812315564148   -0.21404858201985
C           4.65221928314029    1.16775011888527   -0.26855549583842
C           5.34805154032146   -0.04534277077872   -0.22267178607050
C           4.62752765155741   -1.24573040355778   -0.12354140302069
C           3.25414879910940   -1.21803514016229   -0.07133782239039
N           6.72039593878679    0.03967945055412   -0.28486221855170
N           7.36441699909077   -1.05302334610694   -0.19477948950214
C           8.71660116436460   -0.96180358141237   -0.33703529485191
C           9.50304542805922    0.06886420032893   -0.95429186439557
C          10.77989281646894   -0.38622400079810   -0.89724185069426
N           9.48524253337883   -1.96324970052699    0.05416674029962
N          10.73460701717611   -1.61376350159722   -0.27473359667440
C          11.78827822758845   -2.37792572608367   -0.01357946952361
N          12.72094881664690   -3.00702313705771    0.19621575468332
H           0.67323368271202    1.00447933792505    0.02201839901495
H           0.70971207654863   -0.59200301095985    0.78618014262090
H           0.65508470547658   -0.46033275539711   -0.96603499517779
H           2.74431251824785    2.11888132401080   -0.24780960987338
H           5.21571368739323    2.08497282549688   -0.34348087595011
H           5.17676134884773   -2.17424650117864   -0.08755364103114
H           2.69990150640690   -2.14279197359490    0.00593867993197
H           9.13063518966992    0.98068742622846   -1.37097538336358
H          11.71130458584264    0.02967462250136   -1.22615701819609
