35
         -66.371675450567          0.000499136000
C          -1.03371273519256   -0.12866370639464   -0.55609517159510
C          -0.20565200566468    0.94674027965628   -0.38224300103953
C           0.93956265804469    0.41435508268119    0.24221482166225
N           0.81425256283046   -0.87613121808301    0.43214546882456
N          -0.38689908599110   -1.21607573869970   -0.05335070726010
C          -0.81208519738161   -2.53713801237042   -0.00111379048111
C           0.00495971876023   -3.47718180237742    0.63497261807543
C          -0.37631594813948   -4.79570205640137    0.69858871799889
C          -1.58907799845141   -5.20939791365451    0.13040222912063
C          -2.40421208303445   -4.26134073732651   -0.50782854071814
C          -2.02166712861679   -2.94316517094921   -0.57306871507374
N          -1.87121807979043   -6.55185083045843    0.20695124195092
N          -3.01082344333791   -6.92617392070860   -0.18218559280093
C          -3.33465354365541   -8.22284095977673   -0.32509807617924
N          -2.58640969356210   -9.12142313525309   -0.93805107908494
C          -4.64814796349783   -8.75493592354823   -0.06441891362834
C          -5.85520139683003   -8.38379551659836    0.51647726876332
N          -6.86188812548153   -9.22757884653526    0.55380042239065
C          -6.69950878437096  -10.45792116482886    0.03230790118624
N          -7.75631841958008  -11.27994664954272    0.09968116771043
H          -7.68278353703699  -12.20466240671082   -0.28252617322894
H          -8.60611416017966  -10.95072554772513    0.51833191014697
N          -5.59116720676414  -10.93915556024616   -0.54330770911432
C          -4.60025533462674  -10.07213315893328   -0.57325515747939
N          -3.34656544478009  -10.24234240605077   -1.10781759503757
C          -2.90121886608500  -11.31264472134770   -1.74860384198855
N          -2.52958646778740  -12.24743773352141   -2.29470713628878
H          -2.01200767373049   -0.18286175866014   -0.98561842310131
H          -0.38596011276919    1.96501480506406   -0.65770587950948
H           1.83051636890427    0.92415785819482    0.54984161864669
H           0.93405687467182   -3.13725326178833    1.06326652465290
H           0.24383913982871   -5.53318467132195    1.18264600549080
H          -3.33200367140092   -4.59087781470228   -0.95075703366131
H          -2.65915400045043   -2.23212600646971   -1.07444325564425
H          -6.02287921485211   -7.40625967461441    0.94789787629568
