25
         -41.807386376735          0.000510875893
N           1.15819417463609   -0.09929430543123    0.17744035861871
C           2.51944311427233   -0.09555802314757    0.01594737809761
C           3.20368463902692    1.10027231782838   -0.23020716373933
C           4.57341436885825    1.11172107771527   -0.33489641288520
C           5.31046965190583   -0.07128172573190   -0.19136183167772
C           4.62249707321716   -1.27075575682382    0.05698102765696
C           3.25460088009837   -1.28058046486766    0.15516100980048
N           6.67325152919035    0.03659595195124   -0.31793513870750
N           7.34832481714496   -1.03231830331747   -0.12172812094311
C           8.69663943858338   -0.90298385580804   -0.26025517445853
C           9.49473035977142    0.22423366012879   -0.59779429795894
C          10.78186897002271   -0.23961037083467   -0.56931422464093
N           9.47591094928419   -1.97044694332033   -0.06041788834880
N          10.70937211957483   -1.55156132058046   -0.24420718358529
N          11.78953984139147   -2.39801334661237   -0.06697773058040
H           0.64514183238470    0.70180297161800   -0.14935065622160
H           0.68208382026829   -0.98316536990553    0.11862927615787
H           2.63935021720332    2.01620553080962   -0.33732762387781
H           5.10576159719754    2.03054345073058   -0.52641635871545
H           5.19955634787097   -2.17692658918287    0.16072157450483
H           2.72610474793470   -2.20534531944349    0.34245660783630
H           9.14110250108276    1.20924654484358   -0.81662778281947
H          11.72499723549955    0.23412973392501   -0.74994207932220
H          11.46898988261345   -3.19798620389635    0.47356480012650
H          12.14360989096648   -2.73184334064631   -0.96345236431695
