35
         -65.868655915720          0.000492355980
C          -0.55542618854615    1.10972575814405    0.72528999224480
C           0.75772252004788    0.92515225180245    0.64137409600549
S           1.55601682604598   -0.45019651375599   -0.11980351477694
C           0.10722502251442   -1.26373574296309   -0.70654188502058
C          -1.14271237777608   -0.87423564346450   -0.47996028682448
N          -1.53777504588756    0.25155061910670    0.23848328595173
C          -2.88053762767566    0.51147540597914    0.44930540703739
C          -3.79686891704551   -0.54532527628991    0.58452863472032
C          -5.12835246513612   -0.29698927521461    0.79382469195716
C          -5.60989680639140    1.02057121177874    0.87398997864260
C          -4.69179407798655    2.08040957994025    0.73297224360947
C          -3.36170648814192    1.83057145265391    0.52983948976030
N          -6.94704584508021    1.17450435965364    1.06935155827857
N          -7.37302659473298    2.38408064236954    1.19722436367037
C          -8.70939536828240    2.49211844306535    1.38421693365351
N          -9.26155358296856    3.68055742050517    1.50097489075775
C          -9.72249725484594    1.45932071989283    1.49528505974907
C          -9.84858916165654    0.07681055014680    1.46952122446810
N         -11.03936694252082   -0.47846919708264    1.61463363787873
C         -12.09442570702138    0.30644917449270    1.78582116547581
N         -12.11836609226416    1.62659335558205    1.83506201328392
C         -10.92457750663931    2.17480125514889    1.68715713469853
N         -10.59358424301758    3.51030417248539    1.68396177874187
C         -11.42876704741379    4.53153872962003    1.83293212465042
N         -12.16120735212753    5.40037815572421    1.96261054218477
H          -0.92907291473705    1.97329078227906    1.25320007911824
H           1.44827317558319    1.63171805035982    1.06590334733884
H           0.32118383393023   -2.13006119330779   -1.30680090980335
H          -1.95374781216847   -1.42808261129475   -0.92787050645620
H          -3.44650148105605   -1.56628488428315    0.56731477307600
H          -5.82574878075138   -1.11045916151803    0.91894147554792
H          -5.07221533504728    3.08943117233202    0.77190977806347
H          -2.68684244410608    2.66124280191607    0.38638984793811
H          -9.00299840714336   -0.58214463691567    1.33250135486307
H         -13.04872150995368   -0.18933192888962    1.89960619951494
