44
         -73.374451870099          0.000360863569
C          -0.84784819955924   -0.68360795534660    1.23453240083912
C           0.43973227490709   -1.00419993767446    1.20694661424462
S           1.62364372330829   -0.39827059921064    0.03876701513919
C           0.52860257084259    0.64108368986686   -0.88561610088778
C          -0.76458968791601    0.80939042899791   -0.63891209349449
N          -1.49672513448033    0.19333377966857    0.37103848546120
C          -2.85774541156081    0.44901427729075    0.51659880085565
C          -3.73523732539160   -0.56640586559553    0.91781064799744
C          -5.07932581664691   -0.31733823216065    1.05131545228870
C          -5.59969201251685    0.96208210293371    0.81273765422841
C          -4.71747933176638    1.97932358382448    0.41358483492602
C          -3.37727497051125    1.72473448902632    0.26102252562692
N          -6.95656635772685    1.10919140816800    0.92127402923236
N          -7.40586559908995    2.31001025657990    0.97242016175094
C          -8.75401521097324    2.44924472679183    0.97414698495584
C          -9.37680131694414    3.66207827268780    1.18285447503867
C          -9.81031776324622    1.48794766592565    0.73986143036798
C          -9.81407238208482    0.13112646387439    0.44118467670352
C         -11.02840830691284   -0.48723274144093    0.22319633179087
C         -12.22264877116102    0.22909028000356    0.27895653032080
C         -12.24138856375526    1.57865866523032    0.57481235184198
C         -11.02630523476185    2.19820892213893    0.82436881351510
N         -10.73194766262362    3.52235092390894    1.12026589023365
C         -11.63583732139447    4.54357053909720    1.32633703787240
C         -12.87236555084473    4.48656570747553    1.90244433657387
C         -13.50997241435179    5.74540939141209    1.94042467301678
C         -12.75684407994360    6.73821844227060    1.40656839951498
S         -11.24198464289175    6.16645979465809    0.82420915176028
H          -1.47390546857579   -1.08474622970561    2.01740406610812
H           0.86941436979301   -1.67051294794689    1.93297934028634
H           1.01383352563221    1.13565733762203   -1.70760369130621
H          -1.34758714044572    1.44122491286219   -1.29210803132525
H          -3.36081972418406   -1.56515314145976    1.08771378449234
H          -5.75690853692680   -1.10312041230693    1.34800532707778
H          -5.11999914557753    2.96372154443834    0.22913707295727
H          -2.71380575967260    2.52779252729863   -0.02603814595535
H          -8.93049880520828    4.61340356103033    1.39992427559107
H          -8.88164033545709   -0.40629882505515    0.37997723324786
H         -11.05897674421412   -1.54169802099222   -0.00794031823223
H         -13.15451897634943   -0.27933492950852    0.08027585635500
H         -13.17002601615065    2.12735863299313    0.58525913898441
H         -13.29612724771244    3.59093140469813    2.31718331959749
H         -14.48715016905263    5.90016818041081    2.36098183172541
H         -12.98905332589966    7.78040792521711    1.31889742868001
