41
         -75.506385607217          0.000416247509
C          -0.48246794103231   -0.22299614107010   -0.46651764985108
C           0.09969437578945    0.84960426241698    0.15489706377168
C           0.53260313980059    0.34634293837397    1.39573900745319
N           0.23617676911084   -0.92553979109800    1.51632348578265
N          -0.38262025250827   -1.27966791147542    0.38360265334746
C          -0.83374538140190   -2.58489630224360    0.21198587200750
C          -0.65658099704449   -3.49492079835016    1.25754487269720
C          -1.10371982606453   -4.78857693529164    1.13267893083252
C          -1.73747209207658   -5.21034106016107   -0.04372426657757
C          -1.89946393566606   -4.29465241292426   -1.09472206180911
C          -1.45633687473386   -2.99927187720881   -0.96820797289483
N          -2.16401760795876   -6.51747213634053   -0.06737766067716
N          -2.76384061472370   -6.89991926408445   -1.12185094738155
C          -3.11533786504757   -8.19482687023058   -1.24995949668784
N          -2.47862777398565   -9.23528323364645   -0.72706110640073
C          -4.16031950020425   -8.65081489002443   -2.12257275006345
C          -5.16543588610200   -8.14670406446684   -2.94036905924969
N          -5.96215955596011   -8.96089404337166   -3.59471355653111
C          -5.79298596774164  -10.29006242640660   -3.44655442527263
N          -6.64047711921504  -11.07370131437948   -4.13527797982739
H          -6.55107500859917  -12.06987650589540   -4.06532315883562
H          -7.33449590949076  -10.64610519817053   -4.71893813838358
N          -4.87993377963396  -10.90107217366236   -2.68987835557791
C          -4.08546736476770  -10.06286842779526   -2.04665608735227
N          -3.04718624799062  -10.35478875160532   -1.20867076086192
C          -2.54613584992235  -11.58883452622510   -0.85776640368893
C          -1.51301898512813  -11.90086252168035   -0.01525345858370
C          -1.44495585724492  -13.31340973122347   -0.02107563431279
C          -2.43142814844813  -13.73990862043322   -0.85576305651859
O          -3.10738748803585  -12.69355082454675   -1.37106681398885
H          -0.94807847689196   -0.29307691413170   -1.42715408713699
H           0.20235413617926    1.84753310137282   -0.21817459938885
H           1.03963769193705    0.86200940582530    2.18668754504450
H          -0.16750747011339   -3.15165021083592    2.15488920469000
H          -0.97742104183119   -5.50174630551934    1.93157835939481
H          -2.38495504415312   -4.62818824230608   -1.99921834263512
H          -1.59472342215493   -2.31139584094507   -1.78770700585366
H          -5.33177246215868   -7.08687895548133   -3.07850739392038
H          -0.90378698144886  -11.20542153112010    0.52104856444534
H          -0.75492216699524  -13.92311445751914    0.52459177490564
H          -2.74751521634297  -14.71800849611941   -1.15720510410904
