32
         -51.168945973345          0.000400404131
N           1.09371201132298   -0.39588871264195   -0.50729483455669
C           2.44664161138942   -0.34976640802621   -0.72010805774897
C           3.10425664212659    0.87815055170958   -0.85818692510848
C           4.46826718755168    0.92539131108736   -1.01301470457954
C           5.22615408720923   -0.25336711675693   -1.04056152463997
C           4.56440827472632   -1.48513691727913   -0.89914057829846
C           3.20301183114072   -1.52952473759346   -0.74141576540147
N           6.58049861076190   -0.10749475673406   -1.20103323452102
N           7.26396448597863   -1.19037874221717   -1.27191187361915
C           8.60363637027469   -1.03060148774684   -1.40294440840126
N           9.37010130462828   -2.10392178425773   -1.55344449607697
C           9.42621188341725    0.15450502556568   -1.39246417575089
C           9.20943310258043    1.52321839846953   -1.26405232233436
C          10.30776750979977    2.35341742991942   -1.30311867516188
C          11.60408737002670    1.84925834789774   -1.46381440649864
C          11.84515250716234    0.49946450062339   -1.59003739376360
C          10.73851986344903   -0.34368122998493   -1.55227901284388
N          10.63100855247119   -1.70071105228890   -1.64513040338545
C          11.69024165225545   -2.64896299899371   -1.81846632142023
H           0.55599637781777    0.42674479426954   -0.72074772831675
H           0.62783043997637   -1.27733118982180   -0.63936128660547
H           2.52382332625021    1.79002446994611   -0.84102611584975
H           4.97844410419820    1.86993135483554   -1.12345218720176
H           5.15692201693203   -2.38688284567323   -0.92031811959322
H           2.69562872903492   -2.47830267056861   -0.63179160216483
H           8.20809937922131    1.90232910476452   -1.13988446076720
H          10.17498491384389    3.42114405756879   -1.20768949189606
H          12.43435184254594    2.54020834970035   -1.48731542201367
H          12.84563660842713    0.11245094954200   -1.71094945789686
H          12.24120373893980   -2.44388543205761   -2.73885063657813
H          11.24168991379675   -3.63828393699734   -1.87579189201693
H          12.38233375074266   -2.61100662626014   -0.97406248498848
