26
         -41.570281053132          0.000695811511
N           1.15321752748109    0.09349659152008    0.17427343499013
C           2.51691774747013    0.10105415995240    0.02839728648733
C           3.21123955601626    1.30846272090799   -0.10994921939609
C           4.58180451021584    1.31843739599841   -0.20477932040199
C           5.30963035208861    0.12251994310758   -0.15136468534304
C           4.61220448918786   -1.08811568337752   -0.00726512996229
C           3.24295097190540   -1.09649008125241    0.07500109077973
N           6.67314953559411    0.22633340574673   -0.28015077346996
N           7.34557076761724   -0.84301807530595   -0.08693245197474
C           8.68961260557734   -0.73488985856510   -0.28418575347125
C           9.45953612090957    0.30755726567521   -0.87383462862720
C          10.74402045137483   -0.15917572401304   -0.83978794510312
N           9.48476876880097   -1.74634105618778    0.06856889687587
N          10.70957104436522   -1.38583542707149   -0.26316326565217
C          11.81878708688996   -2.25574716576455   -0.00337249249225
H           0.65034177852756    0.92214193818195   -0.09452621305979
H           0.67388468413785   -0.77928785214692    0.02867980150473
H           2.65394072965249    2.23436312546814   -0.14445270252469
H           5.12202712930825    2.24606532509536   -0.31487353305954
H           5.18196235488467   -2.00420523762458    0.02504562662640
H           2.70679916440975   -2.03026577668933    0.17650456848585
H           9.08838821900633    1.23322099856666   -1.26024674018612
H          11.66662458722836    0.27436609961242   -1.17287945380947
H          11.43428375525792   -3.13380049279570    0.51100618205045
H          12.55793765758874   -1.75772452558529    0.62715253364916
H          12.29692840450386   -2.56209201345336   -0.93636511291628
