41
         -71.509914652937          0.000296009433
C          -0.83121547305381   -0.09503065673152   -0.93900532781530
C          -0.10844029521144    0.98856165111833   -0.51452462816597
C           0.83286043679520    0.45444561307771    0.38395099566515
N           0.69230400166082   -0.84536104801296    0.49454549589906
N          -0.32114877404135   -1.18653945476020   -0.30991473323752
C          -0.71003560735995   -2.51929429932159   -0.41906631871003
C          -0.02812769853997   -3.47656230919746    0.33605730689989
C          -0.37667219252977   -4.80333784910669    0.24972838927883
C          -1.41418920364741   -5.21114911134947   -0.59900543397263
C          -2.09905946487128   -4.24318608804030   -1.34917266771466
C          -1.75292924994335   -2.91574073775383   -1.25972414922849
N          -1.69302228190892   -6.55751478833299   -0.62541528094442
N          -2.59494685902723   -6.92790108113488   -1.45670714512577
C          -2.86061727517278   -8.25428601825047   -1.48501166719775
N          -3.79581596895640   -8.70328017513071   -2.30972419059363
C          -2.27793030159955   -9.35782769034753   -0.75656878628312
C          -1.28701424784070   -9.49268847476582    0.21012183281075
C          -1.01104668196135  -10.76171016725133    0.67090632759157
C          -1.69819762970655  -11.87965903003262    0.18772597123970
C          -2.68278478277856  -11.77023672314306   -0.77143789426905
C          -2.96370176027786  -10.49199899034262   -1.23796691437727
N          -3.86626027193321  -10.02637908331513   -2.17189286119156
C          -4.77323444220313  -10.73268414727316   -2.92777996928942
C          -5.69492308961751  -10.27226093904046   -3.82951100981478
C          -6.35441372758443  -11.42593365762893   -4.31330848903353
C          -5.79032432505967  -12.48621179492434   -3.67656087176198
O          -4.82309272856936  -12.07393499557610   -2.82760885732230
H          -1.64939479787674   -0.15100288430931   -1.62602215580505
H          -0.23138591553435    2.01224789053330   -0.80195190567628
H           1.59227637717577    0.96661293866921    0.94043510186262
H           0.77076968824401   -3.14460589646659    0.97938628024234
H           0.14539505035015   -5.55055508716098    0.82658017953890
H          -2.90049203061276   -4.56975400899504   -1.99385418325867
H          -2.29328828172633   -2.18893885070135   -1.84596731466385
H          -0.76563305287496   -8.62273401970154    0.57421234289720
H          -0.24845438009858  -10.90344407553074    1.42222343889859
H          -1.44917532866426  -12.85555408115266    0.57734635516007
H          -3.20883904031973  -12.63449218876739   -1.14188500095130
H          -5.85987879761052   -9.24993443728737   -4.09327898674344
H          -7.14193368615946  -11.45664291888133   -5.03732884563004
H          -5.97086590935347  -13.54064033367993   -3.72886442920600
