38
         -65.072238928325          0.000404151752
C          -1.07085406244586   -1.05990810578511    0.24386912405401
C           0.16815121100985   -1.48960205651328    0.03766325617692
S           1.54137970721728   -0.47488866414450   -0.41782409683835
C           0.71703951768934    1.08628236156156   -0.32664180678262
C          -0.57307999185894    1.26335847480890   -0.06833322272794
N          -1.50831705979021    0.25996002629207    0.16839228266211
C          -2.85165994975395    0.56246716443945    0.35042580600819
C          -3.84250900613672   -0.32175149782109   -0.09980642991418
C          -5.17266705012915   -0.02814502501369    0.06973181412097
C          -5.57121472477952    1.15241857431373    0.71291465652545
C          -4.57697891130443    2.03585665161157    1.16754821792326
C          -3.24841375286852    1.74994633304340    0.98334051752705
N          -6.91838616878625    1.36514644520272    0.82235654669076
N          -7.28639506535043    2.36559603301339    1.53760323418260
C          -8.62508391782118    2.59348243200700    1.59687257790370
C          -9.17155034604690    3.54701968129016    2.42147889044340
C          -9.72709170574072    1.98385785348125    0.87274991102870
C          -9.81121125686818    0.98907465531825   -0.09333620043929
C         -11.06062913198356    0.65638569584325   -0.57982892306981
C         -12.21372333370141    1.29310844884742   -0.12455409025673
C         -12.15397500445784    2.28877431859225    0.83308204012012
C         -10.90047094288489    2.61858878284479    1.31691671017996
N         -10.54003933967573    3.57081161767329    2.26904954943832
C         -11.37799380913802    4.35633370883377    2.91897941203725
N         -12.11382597931716    5.03248923056827    3.48064908125084
H          -1.82754294315958   -1.76363178879560    0.55748046855505
H           0.43024150236633   -2.52545206924634    0.15797100538543
H           1.37060954578310    1.91840354687705   -0.51744283231016
H          -0.97738952991033    2.26394610294263   -0.07616738189372
H          -3.55969294535026   -1.22475829946697   -0.62014966663944
H          -5.93439701773505   -0.70224583811825   -0.29043223433731
H          -4.88556496605131    2.94037211608945    1.66897245266512
H          -2.50361196814399    2.43213721935684    1.36652875921142
H          -8.68370967127948    4.20258642938222    3.11634961783498
H          -8.91566024561306    0.50097441145163   -0.44159073599650
H         -11.15097054156227   -0.11467105180245   -1.33048199117105
H         -13.17271281276222    1.00518817882256   -0.52798580569489
H         -13.04121833166792    2.79010790219138    1.18954948614956
