37
         -69.324281914546          0.000588347668
C          -0.58490246668289    1.21534361886773    0.35374854602980
C           0.70376908856220    1.12767573300475    0.04472161224666
S           1.49420337932830   -0.27558640291831   -0.67531955880161
C           0.07655305884365   -1.32222379577927   -0.76342787549652
C          -1.14809323387500   -1.00129119347733   -0.36231951575618
N          -1.54241484003770    0.21804913857361    0.18352033112675
C          -2.86233242984417    0.43917325482307    0.53861589401157
C          -3.66472727901498   -0.60933199025304    1.01762437029798
C          -4.97483927774274   -0.39044856716545    1.35874012091494
C          -5.54408008590221    0.88697422766958    1.23863859263746
C          -4.74041987070337    1.93751017457466    0.75734075056355
C          -3.43176590408735    1.71852927177380    0.41848992348848
N          -6.86738511198148    1.00256026893375    1.54877224421745
N          -7.35076040289855    2.17297237746255    1.61790361706800
C          -8.67037682396605    2.40158661205040    1.70030997029197
N          -9.58837512224155    1.81974929822643    0.94991984101550
C          -9.24550570316006    3.50042615915926    2.43689900342706
C          -8.88031408433500    4.47147572871313    3.35981582212880
N          -9.77071991312679    5.32672736771855    3.81446639030424
C         -11.03916498198386    5.23539858270196    3.37640947349115
N         -11.90681775603443    6.13480948408007    3.86610358542367
H         -12.86928995309682    6.08703668920154    3.58758589012333
H         -11.58929857369851    6.79919691172255    4.54688133609303
N         -11.51970821278744    4.34509659385340    2.50071793654018
C         -10.60629284117049    3.50445950234844    2.05816546581403
N         -10.76563188712610    2.48974837200891    1.14771173664258
C         -11.87381321960644    2.18074130025825    0.49393315748161
N         -12.83956787252596    1.91423353934993   -0.06093728237563
H          -0.94954609309109    2.11165210437939    0.83166278990287
H           1.38141755221201    1.93967588349584    0.23925676726501
H           0.28697979213574   -2.28068463453631   -1.20306808808699
H          -1.94917024112047   -1.71003509949604   -0.50511553814925
H          -3.24071854329328   -1.59247944691567    1.15512589132600
H          -5.58828245666197   -1.19112456391839    1.74050529995976
H          -5.18685667561926    2.91336849463589    0.63945270120693
H          -2.84850907038275    2.53102384562509    0.01131893328195
H          -7.87118194328423    4.57418115924277    3.73525986434381
