37
         -64.034823121584          0.000668575288
C          -0.56197532826492    1.10871053283570    0.78819961089531
C           0.75225281314605    0.98623757025775    0.64651244782752
S           1.57279226930802   -0.26135038870049   -0.29976297694284
C           0.12818751927162   -1.08232937524038   -0.90405066932104
C          -1.12371828038850   -0.76313492082298   -0.59894969434065
N          -1.53018552585834    0.27829751820854    0.23050410541944
C          -2.87982270000900    0.49103903917355    0.48250547184500
C          -3.76789100761614   -0.59077535307162    0.56558275545206
C          -5.10456219055964   -0.38372388902618    0.80152739882561
C          -5.60863023075036    0.91216538351610    0.97940015429188
C          -4.71775033090497    1.99606224220176    0.89748654577973
C          -3.38486192706805    1.78913128735390    0.65101432032904
N          -6.95855038242132    1.03299768074269    1.17527905326585
N          -7.37709700103257    2.18861647424267    1.53824481059471
C          -8.72518971082260    2.31726859992991    1.64560310664845
C          -9.77614105376905    1.43470446172242    1.24397382021726
C         -10.92172168251144    2.09872117904490    1.56021522218520
N          -9.23421753597957    3.43230172657524    2.16411964083512
N         -10.55268442268292    3.29146019268710    2.11428404205830
C         -11.38155863208037    4.28085810729161    2.59217709431578
C         -11.00272958222307    5.47204572520325    3.14220003875693
C         -12.11006305249690    6.25300000711758    3.53257805958224
C         -13.30030604956670    5.65365754900979    3.27745368305179
S         -13.10825962953132    4.10549654733009    2.54771008160894
H          -0.95142565359168    1.88755423559785    1.42573099538665
H           1.43406906373085    1.66065624451757    1.13267804378345
H           0.35341576088577   -1.88623697909776   -1.58191708005746
H          -1.93282189512889   -1.31013673857954   -1.05901631246995
H          -3.39516624130454   -1.60032713780891    0.47644270562567
H          -5.78569135661604   -1.21671676919489    0.88021355406931
H          -5.11726699537741    2.99209802063313    1.01107105608509
H          -2.72724054356099    2.64003037955891    0.54909310226459
H          -9.65917579853301    0.47386290045280    0.78949904438733
H         -11.95577499915353    1.83959610614753    1.44697360909464
H          -9.97287346397767    5.75366844443683    3.25248433221232
H         -12.02123256458771    7.22372564407567    3.98565572545507
H         -14.28989165797323    6.01684775167881    3.46895310098164
