34
         -57.862180237980          0.000873688832
C          -1.15382128033133   -0.06057302293590   -0.00871871233455
N          -0.35653121679723    1.02999719664119    0.02236379239233
C           0.86738982305804    0.57779845506538    0.01148772596604
N           0.90459022668273   -0.77274089029718   -0.01506679216048
H           1.72527257706952   -1.35414534617413   -0.04632327344447
C          -0.39720441484961   -1.21674513379859   -0.03355264041968
C          -0.78089319580031   -2.60781602390629   -0.05813661118331
C           0.13923398389125   -3.62889742050355    0.20932529410035
C          -0.24476960930977   -4.94919550952194    0.18266439460868
C          -1.56828754358876   -5.29881366394703   -0.11015198533043
C          -2.49446402385439   -4.27813414939602   -0.38114859954992
C          -2.10498928004626   -2.96242615355097   -0.35328532663366
N          -1.84789105095518   -6.64447782466025   -0.13831495924816
N          -3.07311580916851   -6.96399198407228   -0.28728293610182
C          -3.37809711558102   -8.27552825965079   -0.42506131800182
N          -2.55174630921294   -9.25296528271387   -0.78647632769003
C          -4.71506017502706   -8.78907872163116   -0.29732511655604
C          -5.95610659877270   -8.25991908420994    0.04434249127225
C          -7.03561929937354   -9.11442399262807    0.05798634479366
C          -6.90018762051422  -10.47339854071039   -0.25225722694918
C          -5.68299128643258  -11.02222593391908   -0.58879407412200
C          -4.59011413389102  -10.16189651081992   -0.60733192061084
N          -3.27366809689717  -10.36271044155554   -0.89742177440260
H          -2.83028316948690  -11.21520314987350   -1.20214564841512
H          -2.21948713353803    0.04577921364460    0.00603306231818
H           1.74665377217392    1.19057905507368    0.02346786676201
H           1.16390632779427   -3.38793241420680    0.45529894397924
H           0.45950917668202   -5.73959781146394    0.39074003784520
H          -3.51087305539867   -4.55590721762763   -0.61566869282190
H          -2.81987598509408   -2.18381982758026   -0.57056717515509
H          -6.05577715743666   -7.21327885085075    0.28357422114374
H          -8.01423587356205   -8.73558783905996    0.31254099866357
H          -7.77621643314107  -11.10429715035055   -0.22557227631794
H          -5.57801901929057  -12.06985576880844   -0.82583178639611
