36
         -64.967902680783          0.000939706340
C          -0.88961192268539   -0.89643868679148    0.69979447212109
C           0.36342862652434   -1.27934010024794    0.48443159462174
S           1.52783981711326   -0.43930533029383   -0.54488281488013
C           0.51927604873703    0.95461714814771   -0.94718946591577
C          -0.74489607134264    1.12478938386782   -0.57856916974619
N          -1.50456484624764    0.23981844366113    0.18121660886962
C          -2.84669868772793    0.48752127847864    0.43516137096759
C          -3.75519544954818   -0.57568271338582    0.54121340746279
C          -5.08515368254524   -0.33886403997533    0.78432575814751
C          -5.56567470568488    0.97009057778040    0.93585346765743
C          -4.65199761189443    2.03495459672334    0.83914138218443
C          -3.32495340290053    1.79791170625107    0.59191861570230
N          -6.90500468289557    1.11060326213706    1.17449542503001
N          -7.33560562634076    2.31721847448351    1.28080408333657
C          -8.66295361628802    2.44775745478503    1.50238252352128
N          -9.17188454039182    3.66568438254374    1.66793211482791
C          -9.71899892991509    1.46465716990178    1.58165120536112
C          -9.80697877363401    0.07837864657922    1.48386273651481
C         -11.05075560013727   -0.49836826510868    1.61825911979553
C         -12.20039825295405    0.26894067847648    1.84444160971392
C         -12.14779969979384    1.64138511478470    1.94392871681920
C         -10.89236565511733    2.22192083672630    1.80933613910830
N         -10.45658101135161    3.50407210593968    1.84258859975636
F         -11.24546321224334    4.59892699775572    2.05106447869648
H          -1.50434200747708   -1.46523962220021    1.38124826757198
H           0.77263654440261   -2.15327893215444    0.95853949467253
H           1.02968155910667    1.68185385878820   -1.55263193079498
H          -1.27700510682954    2.00034656474126   -0.91715719559771
H          -3.41505727096236   -1.58962791041237    0.39176174605103
H          -5.78587849276138   -1.15690930666927    0.84655462431682
H          -5.02394133260857    3.03821479157865    0.97862487051634
H          -2.63765053763752    2.63039265543946    0.55653518231291
H          -8.91858639163688   -0.50576909437669    1.30928517452364
H         -11.15055489872527   -1.57115239914699    1.54815840067806
H         -13.15215845874824   -0.23130021763787    1.94159342927056
H         -13.02812211685698    2.24012048883015    2.11584595680531
