32
         -55.506958093795          0.000798469732
C           1.30115202950373   -0.15834788706302    0.90027440998536
O           2.57997091638448    0.03583849455297    0.34435615498567
C           3.19348556065430    1.23310650409427    0.50905783898838
C           2.65651383916820    2.31836104653038    1.20138600913925
C           3.36798522310293    3.49587902520741    1.29446277885361
C           4.63566305688086    3.61650960559354    0.71805118057656
C           5.17296939804798    2.51737927355458    0.02586747995355
C           4.46004233762168    1.35159663373207   -0.07977438872173
N           5.25370962966042    4.83777908749413    0.83872872913385
N           6.48068697152344    4.89199113823439    0.48923235370255
C           7.05059827192368    6.12679466683860    0.53806639402606
C           6.46278664041247    7.41646424156020    0.70577872640076
C           7.50837505482476    8.28843539751597    0.62195035622533
N           8.36598600799161    6.24233675179996    0.36474537673547
N           8.63135739409876    7.54254278951202    0.42277786193412
C           9.93211010858048    7.97916882327434    0.29199770006139
C          10.52372641009375    9.21986292084319    0.30403936036548
N          11.86094951969446    9.07888525546174    0.13376504992369
C          12.08624578706186    7.79989025222929    0.02101230427626
N          10.94356324547044    7.07863990257145    0.10972232526116
H          10.79427514024620    6.08296997204477    0.06109650789569
H           1.01563533313246   -1.17449180355627    0.63305735964786
H           0.57132873301091    0.54342033669418    0.48455372252754
H           1.31891332546569   -0.06293277902270    1.99071601557532
H           1.68486906427040    2.25207950160613    1.66557197410263
H           2.96008098945880    4.34058002381348    1.82805124699979
H           6.14844658135545    2.62193631548322   -0.42373716767827
H           4.85163146549166    0.50043692198172   -0.61523433804023
H           5.42423429661918    7.62515809783547    0.85165089065898
H           7.55386383356709    9.35637769924533    0.68638283155498
H          10.07984288443578   10.18650248729398    0.42190687465980
H          13.05155095024683    7.35979930304328   -0.12369391971046
