31
         -52.248737750081          0.000841390956
N           1.36023327525298    0.00997719143729    0.88967818558546
C           2.50008544533039   -0.05431580475759    0.77230389555341
C           3.89930326103000   -0.13050754209637    0.61476746852489
C           4.74269480955423    0.52520662208060    1.51980262059542
C           6.10550216143266    0.46558316109721    1.35652774650000
C           6.65996879266834   -0.27701088831221    0.30275951090067
C           5.80768476341806   -0.93777965264586   -0.59758741360780
C           4.44386715746576   -0.85887189654848   -0.44793136233189
N           8.00959431798971   -0.20426426357414    0.10252790651362
N           8.61561423005547   -1.21151568788593   -0.37587443866230
C           9.90397480094902   -1.03337543929828   -0.74815323530893
N          10.64234086884833   -2.09669848904651   -1.05150125633172
C          10.67510647057259    0.16575377874203   -0.95779889468407
C          10.44429141933840    1.53267017622647   -0.83426644639682
C          11.47436371010174    2.38697800078789   -1.15893373537524
C          12.71143167191588    1.90629704209589   -1.60484677729258
C          12.96067510423427    0.55892273920066   -1.74075270683843
C          11.92608590951244   -0.31202847090083   -1.41038691050615
N          11.83306887657956   -1.67639206667618   -1.43332897743215
C          12.84470432259160   -2.62722840760626   -1.79235406401585
H           4.31078215779858    1.08163575121789    2.33881425017655
H           6.76878791920074    0.96207077203905    2.04801574683836
H           6.25230873703195   -1.49033683295101   -1.41183996804597
H           3.78456863502353   -1.36202464932320   -1.14044559921225
H           9.48777628771950    1.89490152954748   -0.49284751239721
H          11.33225695506751    3.45363426946151   -1.07167564088679
H          13.48834158628079    2.61445919358716   -1.85162767656271
H          13.91630865110849    0.20151254634090   -2.09287847335634
H          13.75440416560780   -2.10150911352427   -2.07050486751543
H          12.50199755493450   -3.23603671048730   -2.63056739702871
H          13.04764598138508   -3.28814685822734   -0.94799397739884
