38
         -69.104980008995          0.000566532328
C           1.27886746449842    0.15124782130624   -0.15648094469997
O           2.65183883591299   -0.01471872808996   -0.42310500531594
C           3.12775218535677   -1.25694914730971   -0.67395465040101
C           4.50644579969234   -1.34420492024950   -0.90762558484422
C           5.09475136926233   -2.55626868069656   -1.16677979853625
C           4.32289446420970   -3.72729991896837   -1.20185611957051
C           2.94271918700406   -3.63272009178672   -0.97525810281951
C           2.35177926538073   -2.41746382423048   -0.71322705267897
N           4.99438579581881   -4.89449609325249   -1.47193994488249
N           4.30843031659533   -5.96674903565589   -1.42619950703312
C           4.86827294265033   -7.13180984758905   -1.80510363754090
N           5.83065808004566   -7.28580978551622   -2.70819197294343
C           4.37116912986668   -8.41706558495531   -1.40289031056445
C           3.42982795150941   -8.97819078477911   -0.54720620006687
N           3.28841662907348  -10.28225225045723   -0.47701949785574
C           4.07981384140862  -11.06291873756905   -1.24019870428896
N           3.88714893175290  -12.38820685917394   -1.12224693405135
H           4.44391277068113  -13.01713803678826   -1.66957543027088
H           3.18151182059068  -12.72188338547014   -0.49311185993981
N           5.02488559234829  -10.65767320118764   -2.09014569103362
C           5.14404388498716   -9.34023750814587   -2.14847972689196
N           5.99026795481165   -8.60685966762878   -2.92154401686154
C           6.89682692314949   -9.05559005722768   -3.85385415290798
C           7.24007342194194  -10.31131764320634   -4.29281437095181
N           8.21044741295231  -10.20260677820802   -5.23363418083400
C           8.45447056780310   -8.92914622842216   -5.36848314468949
N           7.68044062269996   -8.17714216568485   -4.54767340927841
H           7.64099552929917   -7.17745383791111   -4.42644410878426
H           1.14197840991380    1.21548857202620    0.02792321551052
H           0.97167716110454   -0.41164098854707    0.73035143119010
H           0.66437843159906   -0.14929570923922   -1.01083884119640
H           5.08485948353223   -0.43437298138004   -0.87565612225475
H           6.15549749721984   -2.63339577411317   -1.34579311816991
H           2.35229061161727   -4.53598523293201   -1.00786353038393
H           1.28740558462369   -2.37608230455420   -0.54035304199567
H           2.78102143179542   -8.38305784583379    0.08121973402132
H           6.84576091871384  -11.25529755515394   -3.98221776753660
H           9.17546177857741   -8.51208520141868   -6.04159789864704
