30
         -51.682492895373          0.000894154236
C           1.14317377624201   -0.05462989406040    0.36519131749280
C           2.63080824368897   -0.07896724976257    0.20904842498463
C           3.44867593197102    0.75402202061379    0.96634845189053
C           4.81819271139962    0.73297716306106    0.81007371988255
C           5.40782005336439   -0.13367142485582   -0.11722656957562
C           4.58601409736282   -0.97660651050343   -0.88165537872936
C           3.22183442304571   -0.94221209958431   -0.71478291906350
N           6.77925718010375   -0.08671672880576   -0.20892675192137
N           7.31812289620823   -0.89650909461339   -1.04282519414878
C           8.66716570400755   -0.83429516134788   -1.11553885355002
N           9.32031716657018   -1.63737054500894   -1.95389684519249
C           9.61333935029206   -0.00524313042190   -0.41763345720587
C           9.66938518283853    1.01402781389426    0.52761586114563
N          10.83333345684196    1.52616997093430    0.87779299169261
C          11.94190040847127    1.05788141739217    0.30800164063822
N          12.04529906409979    0.10529711205325   -0.59519550928080
C          10.86977366529263   -0.41809100239540   -0.93372374736156
N          10.61256788793277   -1.39154593773636   -1.83816042471154
N          11.54316089143807   -2.14863514968855   -2.51539120735521
H           0.84562263411021    0.58565056177260    1.19156434377150
H           0.76248451788841   -1.05932026238285    0.54340229972153
H           0.67671810708453    0.31768871174753   -0.54696902032822
H           3.00204991539185    1.42548278054705    1.68596120618799
H           5.45583885626098    1.37683890296834    1.39603428534494
H           5.05269435408164   -1.64113756187949   -1.59259735897194
H           2.59113029173376   -1.59231023122797   -1.30523217099059
H           8.78449370444759    1.42038427373114    0.99706929012262
H          12.86824502131967    1.51797301083746    0.62401613671413
H          12.35222399325078   -1.57965553533397   -2.74701131692068
H          11.10944651325930   -2.56215621994378   -3.33502324428226
