42
         -70.786033101171          0.000948941015
C          -0.79107680814753   -0.14612164578126    0.24566991667914
C          -0.43287086232369    0.94707361534340    1.06203579821088
C          -0.41747159915863    0.47073276725124    2.33794705756093
O          -0.73771888312916   -0.82989563598519    2.36426344305842
C          -0.97047141085691   -1.22015469409520    1.08702788156037
C          -1.34373704539576   -2.59188621214064    0.82659184105651
C          -1.41053863759535   -3.51530236984296    1.87742627087735
C          -1.75613150448043   -4.82401005869422    1.64273859076258
C          -2.07818435458957   -5.25068072918664    0.34716230715984
C          -2.00992933019233   -4.32718008160626   -0.70770670231426
C          -1.64235217660879   -3.02505369209662   -0.47065862907192
N          -2.34880676940362   -6.58244672412213    0.17193099915750
N          -3.05164743318550   -6.91174904701253   -0.84213303024781
C          -3.21774969412730   -8.23997964150030   -1.06219121224456
C          -4.05034504994186   -8.72738630233980   -2.04840066170053
C          -2.62998773802108   -9.39579628100412   -0.42027228421588
C          -1.73495173519050   -9.55125159575469    0.63124105871637
C          -1.40148120771580  -10.83235566780488    1.02122018019316
C          -1.95552249298977  -11.94577801479623    0.39187677923562
C          -2.84117512778482  -11.81355124294966   -0.66036679999817
C          -3.15951764627836  -10.52879887574474   -1.07344445597330
N          -4.01648037029838  -10.08820639017555   -2.07341983915706
C          -4.74371609052963  -10.87467659451034   -2.94474495368087
C          -4.38790916461803  -12.05585052217185   -3.52909864127416
C          -5.40248583671480  -12.57302472284127   -4.36338236489666
C          -6.50412051845661  -11.78443448622465   -4.41009165021717
S          -6.34628378567902  -10.38352976034552   -3.42434329448095
H          -0.89782197625078   -0.13492833979721   -0.81930433889121
H          -0.21703446240077    1.94675854021369    0.74464980357314
H          -0.20269617408582    0.94240554625983    3.27663145687004
H          -1.17970299781523   -3.18487975330867    2.87894279899303
H          -1.81197144954852   -5.53674564379903    2.45143084134159
H          -2.23802857299956   -4.67204507057052   -1.70531912211580
H          -1.58887533332911   -2.32571690736297   -1.29080066896221
H          -4.66506263974166   -8.17692390643785   -2.73444197953707
H          -1.32806349348115   -8.68219387353682    1.12253644322081
H          -0.70860697675501  -10.98044630502712    1.83613452233752
H          -1.68967344430688  -12.93431273115369    0.73586527852602
H          -3.27998321055075  -12.68273202680953   -1.12466600690168
H          -3.42809482872628  -12.51993778374956   -3.39833891919875
H          -5.30509372574573  -13.49166807601635   -4.91294196964555
H          -7.40751744084320  -11.93021906277403   -4.96703574436451
