34
         -66.027125138185          0.000983644974
C          -1.11185098738393   -0.03109281769499   -0.04974841110703
N          -0.30650548889304    1.05245844329072   -0.04122351603098
C           0.91444917762936    0.59072319280039   -0.04233999097677
N           0.94144239788619   -0.75990994214323   -0.03996847382923
H           1.75902522020636   -1.34632193954385   -0.05898758924893
C          -0.36351292740054   -1.19473096335003   -0.05028133060468
C          -0.75948874783696   -2.58088383237004   -0.04590430473435
C           0.15738344770877   -3.60747889979405    0.21632358357622
C          -0.24136464090175   -4.92322965850033    0.22491441750193
C          -1.57439244005048   -5.26289912689091   -0.03912585290107
C          -2.49790779656747   -4.23728165844434   -0.30420068864678
C          -2.09531545357817   -2.92589460742588   -0.30198572500274
N          -1.87268999147665   -6.60200185825547   -0.00584346055979
N          -3.07151416320389   -6.92644841273370   -0.27554797930992
C          -3.40495847482982   -8.22786120706203   -0.36855214651930
N          -2.60171440823655   -9.22077497657912   -0.74580687016223
C          -4.74576974953611   -8.71999287004821   -0.22627266030611
C          -6.02035254207160   -8.27941942898670    0.12215655023534
N          -7.03622314517108   -9.10913732446883    0.12028790153052
C          -6.82743831607237  -10.40037214972227   -0.21259205594745
N          -7.90888532143351  -11.19450934537455   -0.20191969025453
H          -7.80477992352116  -12.16912002052979   -0.41488631065781
H          -8.79314385819326  -10.80786033472967    0.07127712466959
N          -5.66330600388829  -10.95736243094950   -0.55227008217197
C          -4.65759607179350  -10.10050014280714   -0.55099629990147
N          -3.35555217466805  -10.29879819874387   -0.83391231690160
F          -2.80757316773719  -11.44353147529906   -1.34180882247570
H          -2.17655748769703    0.08543824141479   -0.03855786022580
H           1.79795117150061    1.19730440492819   -0.04294608149399
H           1.18973811803154   -3.37330385000538    0.43295175469187
H           0.45871423875777   -5.71843715227982    0.42829649392087
H          -3.52389897850083   -4.50682961902515   -0.50285129097697
H          -2.80778083308825   -2.14268481303592   -0.50913358194447
H          -6.22738067799055   -7.25456522564250    0.39846556676629
