35
         -62.387107682433          0.000914677427
C          -1.20450460360953   -0.05116564589520    0.07414427580844
N          -0.42714942153581    1.04937913387294    0.15015374096265
C           0.80543592864089    0.61908293386017    0.13672001059234
N           0.86679751926563   -0.72804871352662    0.06263093278740
H           1.69944892079360   -1.29134639758114    0.02192782279991
C          -0.42706310092562   -1.19428322456800    0.01536934240548
C          -0.78744945310952   -2.58678804334555   -0.07339233677896
C           0.16141824343273   -3.60469439151921    0.09356116014572
C          -0.19910086147723   -4.92732326124991   -0.00495485448443
C          -1.52569305169177   -5.28296594609414   -0.28227192443665
C          -2.48406296963241   -4.26680271793491   -0.43915714198126
C          -2.11816348338513   -2.94952621721425   -0.33423114954020
N          -1.79171983387616   -6.62586112081651   -0.36963251190586
N          -2.98361805514811   -6.94482748678324   -0.70685272325935
C          -3.23468047506973   -8.27768140567255   -0.77029356152763
N          -4.42416246017197   -8.67940467775520   -1.16795197063482
C          -2.39318044438118   -9.41731613733420   -0.45759360281783
C          -1.09112499876817   -9.60241055370118   -0.00609397610789
C          -0.65332205958371  -10.89882139881623    0.16752509527391
C          -1.47939782361171  -11.99526106311907   -0.09564167311263
C          -2.77592821335222  -11.83566654398398   -0.54151183989439
C          -3.21103656520120  -10.53119761393377   -0.71505909266343
N          -4.42960823394429  -10.02382197536609   -1.14287580360706
C          -5.48006564602540  -10.75073412703385   -1.48952600543318
N          -6.36083560941035  -11.42322207798078   -1.77885089503428
H          -2.27170276950748    0.03841628624162    0.07921881281959
H           1.67329021055663    1.24668606961131    0.17868423407246
H           1.19036075581987   -3.35998362679490    0.31542633748713
H           0.53168814507168   -5.71141599711536    0.12153254655815
H          -3.50360479132820   -4.55437757254530   -0.64455986397778
H          -2.85664574656332   -2.17409011787627   -0.46364163329305
H          -0.46080311481541   -8.75188311975729    0.19519453943247
H           0.35297610241480  -11.07804406154235    0.51523274494901
H          -1.09267451176107  -12.99182882506236    0.05464988649887
H          -3.42109752810833  -12.67589036166785   -0.74584892209922
