39
         -64.363505713784          0.000448091938
C           3.60740495788465    1.01976673816475    1.11115219947062
O           3.35431001565581    0.02459325252663    0.14982650533202
C           3.82369693706649    0.20047778331537   -1.11390424957153
C           4.55383418991200    1.30436204986336   -1.54900170110513
C           4.96441626169219    1.38401030998658   -2.86370549576231
C           4.67704250028789    0.36097406660675   -3.77042018485899
C           3.94705896174519   -0.75188414659621   -3.32209950449864
C           3.52501062987057   -0.82478769880665   -2.01935160705894
N           5.09048103729958    0.54747789117491   -5.06882552201493
N           5.04326406982281   -0.47895952184682   -5.83182365012286
C           5.37604448544176   -0.28624685206339   -7.13276338416910
C           5.50590940590805   -1.33076187579248   -8.02299965012323
C           5.63072948400591    0.92181176582058   -7.88731286569084
C           5.61604135319430    2.27168421644565   -7.55831498891382
C           5.86617801956871    3.19074566281377   -8.55675679528326
C           6.10780660373809    2.78376921111679   -9.86784909394176
C           6.12674941155411    1.44700481497229  -10.21651069605905
C           5.90515260450779    0.51797657033490   -9.21118201846430
N           5.84389434279755   -0.86811912772764   -9.26005969996781
C           6.09146390191584   -1.67259845137107  -10.35319667570283
C           6.98505674536479   -1.48545578374895  -11.36824005929404
C           6.96072898678759   -2.53622792470274  -12.31059758331308
C           6.06394298179081   -3.50506313321403  -12.00232759726759
S           5.20522339305399   -3.16093936758127  -10.55170396752781
H           3.12846917093598    0.67415372569611    2.02599728621718
H           3.17499069373067    1.98171201472929    0.81798308017689
H           4.68062119016046    1.14249229820514    1.28897439507355
H           4.80249270228705    2.10622000727081   -0.87145830479170
H           5.53045456112060    2.23628087118682   -3.20713344424912
H           3.71847803911660   -1.53464151332931   -4.02882359694593
H           2.95470012297695   -1.66776693992738   -1.66107189239081
H           5.40168134554900   -2.38240104418873   -7.83724313631004
H           5.40673995887632    2.57312492431702   -6.54474708442038
H           5.86348354462143    4.24595148845219   -8.32699251110734
H           6.27795436432134    3.52939057462082  -10.63036520658048
H           6.28559347307088    1.14675846563515  -11.24034901861995
H           7.66025524766280   -0.65187517182477  -11.42179989761049
H           7.59746724815109   -2.56866661049044  -13.17610469253590
H           5.84982705655182   -4.41160354004359  -12.53155768999526
