38
         -61.128774487857          0.000607135251
C          -0.91653839450234    0.00128586921260   -0.28544722877369
C          -0.13120422142344    1.05160721718110    0.23468909815241
C           0.84400965122776    0.45690499231790    0.97582757791838
O           0.71501604808046   -0.87689593046092    0.94892782993890
C          -0.36149155478363   -1.16869890696075    0.17937538183584
C          -0.73587044503495   -2.55184359381943   -0.01373342477454
C           0.02087927935985   -3.57498608837541    0.57035880767286
C          -0.32242514061720   -4.89336200398626    0.39179811835072
C          -1.45251543974676   -5.23678341623088   -0.36213516931463
C          -2.20884480973697   -4.21213171910114   -0.95264752758208
C          -1.85311084968548   -2.89629289309088   -0.78348562900249
N          -1.69670304920869   -6.57291185798877   -0.55390715157085
N          -2.88400667948953   -6.90477142874675   -0.89443258008070
C          -3.09435559928611   -8.21215116594635   -1.17884129705926
C          -4.34679596415043   -8.70480455928316   -1.50883190465104
C          -2.19525716151736   -9.34175874054288   -1.22892185777699
C          -0.83215576345578   -9.50246499464995   -1.00725477039943
C          -0.29188947843573  -10.76383573223207   -1.15134236894121
C          -1.08157885128661  -11.85683410501780   -1.50981201406563
C          -2.43695772374167  -11.72140348525179   -1.73514599747791
C          -2.98523646507550  -10.45469223640375   -1.59144879628784
N          -4.28592752704581  -10.03148655842160   -1.75388922919244
C          -5.38445135343117  -10.87731934144857   -2.12092120918298
H          -1.77398611430820    0.10357515191215   -0.91784836224930
H          -0.27280212689597    2.10158681946083    0.07892711160706
H           1.65596106931690    0.85988766359016    1.54840927504649
H           0.88518177416454   -3.31289320523190    1.16182426488990
H           0.25691962904515   -5.68386822296667    0.84425499525372
H          -3.06568914702306   -4.48837050518339   -1.54906414171534
H          -2.44155970917944   -2.11802495831327   -1.24509498642777
H          -5.27104980802824   -8.16349552072045   -1.57744636214890
H          -0.22817327412701   -8.65331954908592   -0.73122053150396
H           0.76451751563097  -10.91493780477344   -0.98499336442620
H          -0.62211244459242  -12.82876878458435   -1.61350344062785
H          -3.04320011746743  -12.57093437256480   -2.01220469221885
H          -5.19035068116339  -11.35749173757243   -3.08275619364812
H          -6.29129741071849  -10.28095679424919   -2.19973869936695
H          -5.53554766166433  -11.65530750046840   -1.36873353020290
