24
         -42.919047714250          0.000296603844
N           1.13440725743470    0.10186041746450    0.02402665848529
C           2.49239342330611    0.08885715005328   -0.07441962461397
C           3.21175959173068    1.28811065271907   -0.17971866593913
C           4.58238400498677    1.27559436106703   -0.23284539006032
C           5.28830459896074    0.06344040018445   -0.18423768580253
C           4.56557337645497   -1.13963737618535   -0.07678602448800
C           3.19748524396873   -1.12452199919349   -0.02345681276350
N           6.65074974324385    0.14886043034864   -0.25161563828913
N           7.30140859772061   -0.94880292387508   -0.17673749138664
C           8.64995766320331   -0.84688899519476   -0.33070742115497
C           9.42278044053714    0.20579734837979   -0.93130966113356
C          10.70257978056713   -0.24118611998349   -0.90407840604930
N           9.42996958066008   -1.85295103511741    0.02341701678497
N          10.67515453336545   -1.48631994769608   -0.31489210969238
C          11.73661707332333   -2.25023025934637   -0.09634307088172
N          12.67841453999194   -2.87893325487884    0.07327960136607
H           0.63680713996340    0.95056251041116   -0.17932679343433
H           0.63022823598484   -0.76264963879590   -0.06469287544041
H           2.67070380375700    2.22280633205983   -0.21785927620270
H           5.14210137448006    2.19440792007778   -0.31431519586347
H           5.11947437916889   -2.06504284090160   -0.03805803048647
H           2.64241707962437   -2.04848046418973    0.05912107939471
H           9.03793633876643    1.12632144832616   -1.31631331958032
H          11.62725219879997    0.18896588426684   -1.23436086276702
