32
         -51.141336740688          0.000303171383
N           1.30226953711823   -0.19781879961066    0.90036245772178
C           2.63549752713732   -0.14391032225733    0.56587951325356
C           3.41147312950214    0.96717055362826    0.91043618281236
C           4.75658383164865    0.99543825578184    0.62882167443138
C           5.37932873462646   -0.09205393410239    0.00343558055981
C           4.59802068483993   -1.20645804679338   -0.34068966724523
C           3.25275428682211   -1.22791988194770   -0.06896332032056
N           6.72295814048325    0.03222391350220   -0.25711635433219
N           7.31530511974637   -1.02189994709694   -0.68601062053635
C           8.63411651750465   -0.90145230049145   -0.97937873273968
C           9.39094800924123   -1.97854471273831   -1.40741575305720
C           9.52940086442740    0.23135196736364   -0.95028045899804
C           9.37793534162146    1.57671617337131   -0.63013885170162
C          10.48192513689293    2.39856931733554   -0.72020249825808
C          11.72709560970268    1.90811442171928   -1.11955379970558
C          11.90391648735559    0.57925006118618   -1.44487724250237
C          10.79449491927741   -0.24884516452753   -1.35451176756847
N          10.67208859513670   -1.59136981498873   -1.62337237746043
N          11.73629616349858   -2.39593730214297   -2.02608302623163
H           0.84739851422327    0.67485714759826    1.11126250776932
H           0.73550487595747   -0.87393335209588    0.41620813476754
H           2.93833547825867    1.80700232995856    1.40029534515264
H           5.35691878712820    1.85276353143854    0.89219059275067
H           5.08026028261642   -2.03717188414798   -0.83313377236567
H           2.65361664401075   -2.08601838115937   -0.34275764216493
H           9.08123273827885   -2.99766113210799   -1.54435758404739
H           8.41424593329032    1.94892996067318   -0.32217610635126
H          10.38816641983007    3.44689699634036   -0.47671872575141
H          12.56742160257943    2.58458342250112   -1.17451964832693
H          12.86236828979977    0.18882624287661   -1.75013072553633
H          11.86692294762492   -2.34840480732733   -3.03656959770615
H          11.55565884981809   -3.35996451174027   -1.76135371631063
