27
         -52.782489642755          0.000817751721
F           1.06043077750881    0.16251500565552    0.00561195084110
C           2.40325987915648    0.09259952691347   -0.06800509963297
C           3.15874742362360    1.11791525911844    0.47811477669478
C           4.53350646247382    1.04033565223171    0.40190422528882
C           5.14704774841365   -0.05223915471762   -0.22124598502255
C           4.35598032776947   -1.07463201511607   -0.76584401471333
C           2.98280956135291   -1.00481862131201   -0.68779416551179
N           6.52766315671906   -0.02951788420595   -0.24970748497054
N           7.09541213323319   -1.00677390515565   -0.82384429586978
C           8.43720205872040   -0.99197699452459   -0.98449448821888
N           9.18738305352724    0.08800226175188   -1.16816218450291
C           9.23368811461511   -2.17389360007131   -1.15427728019986
C           9.12259918494091   -3.55971445517169   -1.10897839993330
N          10.17163554568052   -4.31716037277390   -1.33344731535780
C          11.35668129515860   -3.72895648030613   -1.59448014807631
N          12.39415839769016   -4.56247496614318   -1.78850909394922
H          13.28590359253100   -4.18407809978558   -2.04722045325985
H          12.22172102600749   -5.55074387328147   -1.80815045436354
N          11.60274412194646   -2.41948140825995   -1.66429069785199
C          10.53075070335036   -1.67447720464648   -1.43931805376840
N          10.43067458836082   -0.32611536638374   -1.44671142334407
H          11.14665548411025    0.34629118685946   -1.67124581379932
H           2.66462701774444    1.95239758965618    0.95027762951779
H           5.15976174759211    1.81638428922874    0.81227927339559
H           4.84563766082686   -1.91163144721526   -1.23946469078821
H           2.35326434152895   -1.77990312559068   -1.09678451498255
H           8.19110459541737   -4.06845179675381   -0.90005179762084
