41
         -75.179185009442          0.000932198484
C          -0.66889491353053   -0.16159033137474   -0.33761200237301
N           0.00009667861469    0.90744058143737    0.14574729226956
C           0.73915695975331    0.45507303638289    1.12197986642666
N           0.57389783827271   -0.87355380312011    1.30387528857439
H           1.04426827625610   -1.45221730103029    1.97947542786593
C          -0.33395335699596   -1.30492131242792    0.36473009220251
C          -0.78561109908297   -2.66861323774330    0.23549012526011
C          -0.50409306887882   -3.63290446573011    1.21187748002956
C          -0.95566638336865   -4.92471738903331    1.07792629353321
C          -1.70180407237562   -5.30465463041241   -0.04482174133799
C          -1.98233875038845   -4.34214813366990   -1.02937981086824
C          -1.53517835147018   -3.05310216100436   -0.88626667280114
N          -2.11830808319148   -6.61270709446385   -0.08148170819706
N          -2.78242830271304   -6.96428627122137   -1.11234166559077
C          -3.13784489726337   -8.25569847336657   -1.25316636141273
N          -2.50937134172865   -9.30872314657924   -0.73945656576302
C          -4.18766965547237   -8.69741561227258   -2.12645226758010
C          -5.18873106611805   -8.17932932675689   -2.94156036920873
N          -5.98868195883211   -8.98297154502861   -3.60332810393149
C          -5.82893785035077  -10.31546383071146   -3.46898384504996
N          -6.67772236001580  -11.08282294229710   -4.17338722755235
H          -6.60849450034994  -12.08104942735629   -4.11049503976406
H          -7.37070419994609  -10.64037900632102   -4.74649098086673
N          -4.92188902430284  -10.94074712555709   -2.71592087449719
C          -4.12352123374493  -10.10985916077013   -2.06446931585664
N          -3.09090885657511  -10.41746308653897   -1.23111933850598
C          -2.60803068505024  -11.66110637191104   -0.89657871273202
C          -2.97918064654502  -12.93499562903491   -1.25365581587692
N          -2.17071075530302  -13.82468600333087   -0.62754258081608
C          -1.33367599892521  -13.12564455289517    0.08715874136346
N          -1.55406282235985  -11.79387205691402   -0.03696131268238
H          -1.07589303710641  -11.01491123273753    0.38750771300081
H          -1.35981262594200   -0.04667389410084   -1.14781370562903
H           1.40055855816331    1.05288605203802    1.71678855672640
H           0.05963466649446   -3.36596421926548    2.09451670616135
H          -0.74513960427585   -5.66975725887057    1.82959150556143
H          -2.56013133106404   -4.64184292854508   -1.89040525117045
H          -1.75338347926111   -2.31957233882508   -1.64673784457549
H          -5.34821042873304   -7.11731096367449   -3.07037997616622
H          -3.76674405119139  -13.23857641308140   -1.90997634838421
H          -0.56087418510275  -13.53880699188383    0.70266035021454
