31
         -55.788483801362          0.000805028444
C           1.08280259633358    0.24582777395409   -0.22246432542489
O           2.45268425252847    0.12054191678074    0.07980627508837
C           2.99364882012956    0.92779892672974    1.02254657272153
C           2.29135417512067    1.88624011536069    1.75350937854395
C           2.94947205289779    2.65654454063985    2.68841676662998
C           4.31870493179458    2.49398501515754    2.91851940011567
C           5.02053728721385    1.52638023846565    2.17843839521233
C           4.36697315277969    0.75874018330725    1.25027839715185
N           4.88106912884631    3.33204749764832    3.85177415951953
N           6.10794309463621    3.14897162647736    4.11729997517107
C           6.76498500987583    4.02808715709682    4.90406559246078
N           6.56539936862125    5.33958136414278    4.93414038848510
C           7.92857535577207    3.69319643703652    5.67686716597092
C           8.67060376982356    2.58741979147176    6.07232520291560
N           9.73354681618407    2.73659137488591    6.83209352831407
C          10.08007396141748    3.97654518325666    7.22691591303206
N          11.20497229962850    4.06513792748295    7.96466149581694
H          11.43866462047237    4.94671228283195    8.38276458376236
H          11.62610182098575    3.21630385115738    8.29297620221414
N           9.44513036928567    5.11530303199144    6.94608418739812
C           8.38279090106782    4.94341524871125    6.17220477148963
N           7.53777045070622    5.87923211080239    5.68978073614291
H           7.59804649838729    6.87912215167277    5.79228359324616
H           0.88570434342559   -0.48755402242487   -1.00258895175592
H           0.84551734211605    1.24610222013962   -0.59766623257290
H           0.45763157180276    0.02465400653288    0.64811089155685
H           1.23479697094889    2.03633202453660    1.59655822626937
H           2.41861847696664    3.40259018803246    3.25880605582614
H           6.07785482021785    1.40555808641750    2.35785822471565
H           4.88812594459121    0.01148552426137    0.67219457875035
H           8.42080979542380    1.57645622544363    5.78011885123094
