32
         -58.409717014756          0.000409304296
C          -1.13463143612936   -0.05411138114418   -0.07228681554762
N          -0.33393655587812    1.03228234342639   -0.04647767120419
C           0.88828879603167    0.57532713896199   -0.00653098140392
N           0.92024636782785   -0.77492874426898    0.00339405669210
H           1.74007663160424   -1.35828809533047    0.01439975772850
C          -0.38240629225048   -1.21489711423943   -0.04358286687287
C          -0.77305075108558   -2.60249281408331   -0.04593642450956
C           0.14550994606439   -3.62631043829939    0.22192898146034
C          -0.24768353763444   -4.94368336538574    0.22332428382569
C          -1.57550884833272   -5.28813205982268   -0.05845944895293
C          -2.50138099897743   -4.26608574490453   -0.32678685448630
C          -2.10509998583065   -2.95270956052091   -0.31445387787628
N          -1.87050349290084   -6.62906218843640   -0.02649491440933
N          -3.04617471479786   -6.96556559841142   -0.36299313029435
C          -3.36851334623882   -8.27366089551835   -0.45087069457384
N          -2.56683941855950   -9.24955399857384   -0.85700128401457
C          -4.70526669724675   -8.77852955037010   -0.29089773939961
C          -5.97383081380266   -8.35467042932894    0.07996272677639
N          -6.97849677943064   -9.21229326023202    0.09194410167041
C          -6.74444251699913  -10.47643046571776   -0.24420677457710
N          -5.60013107775252  -11.01897279807715   -0.61092784858978
C          -4.59170189316440  -10.15469776076083   -0.62962423883979
N          -3.30243693748280  -10.36450295621993   -0.96971517894772
H          -2.88132019284672  -11.21298542121192   -1.31365038164700
H          -2.19937708523041    0.05885082074915   -0.09542155885293
H           1.76906118370454    1.18544803697135    0.01670864359585
H           1.17512346046677   -3.38930478197963    0.44889863052196
H           0.45438049169118   -5.73617537760894    0.43061176891458
H          -3.52511148009484   -4.53935438238561   -0.53328518687567
H          -2.82036128077477   -2.17242206135747   -0.52260740656687
H          -6.19600044509941   -7.33374426712274    0.36007383285480
H          -7.59751029885058  -11.14079282879565   -0.21335550559809
