35
         -61.101679821631          0.000711509320
C          -1.26384020493875   -0.17065756148008   -0.03392002399578
C          -0.55260229158678    1.03823543975140    0.06987715109466
C           0.78467518901765    0.84743381196026    0.22117317624058
S           1.20200357142985   -0.81481832523970    0.24350357337040
C          -0.46593458623378   -1.28494043911002    0.04000142788327
C          -0.83775689313416   -2.67766172037310   -0.03152808492057
C           0.12184532835410   -3.68262177776780    0.14721972011107
C          -0.21735711229818   -5.01115720597894    0.06497033293351
C          -1.54322963492421   -5.38837539713416   -0.18582216223120
C          -2.51082443861535   -4.38664504734799   -0.36383227141987
C          -2.16217147911669   -3.06139963764655   -0.29083594655767
N          -1.79420117820710   -6.73278317180080   -0.30719598600012
N          -3.02154524791801   -7.08537471013930   -0.30385560749728
C          -3.25380326922441   -8.40994159257506   -0.50582928712114
C          -2.35954292132803   -9.48500005688306   -0.79030127259497
C          -3.16186391594410  -10.58094525789206   -0.91187181750963
N          -4.50868858054398   -8.85680173270969   -0.46493456519151
N          -4.44244471193331  -10.15871012916330   -0.70829923285409
C          -5.59789316131526  -10.90934518735941   -0.73415011724521
C          -5.85933560948359  -12.24091936908922   -0.95539774686274
N          -7.19423949990076  -12.45541852013265   -0.86648292632147
C          -7.73679711944434  -11.30025930903759   -0.59985889782677
N          -6.80939180687256  -10.31820414516145   -0.50783614577566
H          -6.92004445236957   -9.33502139749672   -0.31410916880436
H          -2.33126665931372   -0.20818026058007   -0.15281110381663
H          -1.01618125624554    2.00797690760320    0.03352867184833
H           1.55696096918384    1.58377626860532    0.32221176550806
H           1.14554369979353   -3.40034588950963    0.34807758512621
H           0.52281848262220   -5.78401298064938    0.20340859228201
H          -3.52613941910286   -4.68940864103782   -0.57121928137827
H          -2.91822419579549   -2.30617992136399   -0.44044669756158
H          -1.29666746935716   -9.41553709187915   -0.88417566783946
H          -2.94360440003235  -11.60795900106094   -1.12135070442903
H          -5.18296061752289  -13.04235488269627   -1.16920371561839
H          -8.78645510769846  -11.13481206762357   -0.46796356502460
