24
         -42.360719113498          0.000878770661
F           1.06654392028075    0.04127954334267    0.35389945689869
C           2.40614052080278    0.01984247581287    0.19367832506908
C           3.17499975058792    0.96094618660015    0.85944531928523
C           4.54234861508205    0.94567296710186    0.68308801072983
C           5.13811272524883   -0.01928473022704   -0.13647352732633
C           4.33499635968594   -0.95885541447260   -0.79721151589880
C           2.96659530623148   -0.93738806805552   -0.63706161440587
N           6.50520707763652    0.06499394900864   -0.30288439763035
N           7.08799455667378   -0.97534082125454   -0.74451293795467
C           8.42348817172659   -0.85695138271432   -0.97808994445911
C           9.28417949155991    0.27629209337032   -0.92485245545037
C          10.51080301494200   -0.21611752861506   -1.27305420655200
N           9.11685722410565   -1.94007559581844   -1.33857104916622
N          10.35778269595373   -1.54379148624422   -1.50713526308820
C          11.37638658019939   -2.47636938208019   -1.89138027350140
H           2.69642963178430    1.68880785182903    1.49568930898298
H           5.17322902717288    1.66169245691321    1.18578044781827
H           4.81355654693312   -1.68494098818347   -1.43622212662763
H           2.32851772215105   -1.64646378404326   -1.14130829550244
H           9.00670746330274    1.27753356846059   -0.67201644815874
H          11.46543060195116    0.26141298453620   -1.37172021882943
H          10.91324888017975   -3.45739119471061   -1.97163731915636
H          12.16931514895540   -2.50739153624023   -1.14176721514965
H          11.80930896685217   -2.19804216431617   -2.85408205992651
