35
         -54.705868032194          0.000501653528
C           1.52479251532626   -0.25836315950925    1.90237864645733
O           2.80131697931849   -0.11464620379781    1.33013985827655
C           3.37485917206141    1.11963412366019    1.31247788715570
C           2.78400017173169    2.28194054121717    1.80118114278202
C           3.46395360203115    3.48105608835188    1.73316485352339
C           4.74850831289197    3.55121936105041    1.19011889647327
C           5.33337631815665    2.37572653186187    0.69218179285856
C           4.65548163953435    1.18473745928116    0.75080498776999
N           5.34264170903833    4.79427476102758    1.16847586486574
N           6.57522186828311    4.82027814932878    0.81920662938484
C           7.17344748876273    6.03587745206915    0.78421160384024
C           8.51399974429085    6.18806764539272    0.47253671550842
C           6.67076095321523    7.36542568063909    1.04126539095532
C           5.42642252333718    7.87717951981162    1.39192178005412
C           5.30578830596602    9.24073406526362    1.56425654155831
C           6.39631111805788   10.09468591364467    1.39441287377605
C           7.64047179103937    9.61033381597523    1.04336895588983
C           7.76659021314066    8.23946488380666    0.86684339347016
N           8.86940086346825    7.49167122164315    0.52090298262883
C          10.17806076136145    8.02206089980179    0.27043947073870
H           1.28632927380902   -1.31840037510252    1.82937901955072
H           0.77125803971230    0.31972231519402    1.35732951055967
H           1.52027258881159    0.04086226497072    2.95563778288283
H           1.79610816866637    2.26226719902872    2.23477708034978
H           3.01313267353104    4.38481235344977    2.11386669850717
H           6.32164644132197    2.43505722041561    0.26245396850094
H           5.09017719700991    0.27271612010678    0.37089903908566
H           9.22449615416990    5.42323267529830    0.22352141554693
H           4.58957506023161    7.21026162655172    1.52175719606061
H           4.34970621628257    9.66292692623242    1.83733161757830
H           6.26328110056739   11.15671022572975    1.54060686902570
H           8.48087340975637   10.27590580963861    0.91261397213906
H          10.14250937437482    8.76142471776381   -0.53374545795546
H          10.84677525511899    7.21380635344527   -0.02062182909463
H          10.57431299562202    8.50461581676124    1.16806284929688
