37
         -65.041173828075          0.000322007922
C           1.09361083281331    0.25314058985603   -0.07620632263248
C           2.58508113103542    0.19825993668721   -0.17836140563652
C           3.37964264462296    1.23209867675121    0.30725000264191
C           4.75379603374744    1.17176337596196    0.21319292932688
C           5.37149071284470    0.06598163483928   -0.38097012378713
C           4.57272088857835   -0.97469910263690   -0.87954873331736
C           3.20377101551760   -0.90256598270971   -0.77266589088834
N           6.74739439401523    0.08732652435754   -0.41454827131834
N           7.31784459883802   -0.91301599751985   -0.95649894965303
C           8.65893056185872   -0.90212021781691   -1.09970771094438
N           9.42400210556453    0.17517625966741   -1.23676725865601
C           9.45184576000153   -2.08520422974196   -1.27380553885080
C           9.32344996488400   -3.47019758952216   -1.26269784448809
N          10.37003393714930   -4.23644497910944   -1.46728395533143
C          11.56938592282383   -3.65658626434852   -1.67679343143024
N          12.60430989633067   -4.49479845105040   -1.85910205672289
H          13.51323135293050   -4.11851782898979   -2.05312093785121
H          12.43297099496051   -5.48256355491861   -1.87126245072482
N          11.83082347645763   -2.34875768233448   -1.71248477787330
C          10.76038677051880   -1.59705158321634   -1.50839090458188
N          10.67940515358139   -0.23841697533384   -1.49196066603965
C          11.68070567063478    0.67771281399435   -1.71664356417689
C          13.01714103845396    0.54708865212747   -2.00732281191217
N          13.56853771180663    1.78022421885217   -2.12314823718151
C          12.60844541811302    2.63652247568548   -1.91198372515534
N          11.42860099848450    2.01930677233333   -1.65671069794282
H          10.52141103042509    2.41000402777412   -1.45678680073791
H           0.77138907381014    1.11645489863682    0.50011161306383
H           0.71159062273597   -0.64938009788580    0.39881801451704
H           0.65108720765082    0.31500201302855   -1.07037938713704
H           2.91137405767392    2.09060090957864    0.76737581129495
H           5.37664501529322    1.96801763320190    0.59015385888565
H           5.05698826691742   -1.82567195166215   -1.33434385792203
H           2.59115869787160   -1.70898014567853   -1.15132791223310
H           8.37859586342474   -3.96981080361926   -1.09673751531399
H          13.58575835946685   -0.34969858516471   -2.13177388215932
H          12.72203281816293    3.70117060992307   -1.93401660712990
