39
         -71.591189252474          0.000777017288
C          -0.70292954000146   -0.08510833628515   -0.55755424571560
C          -0.08161505988658    0.99889131642065    0.09408725652024
C           0.48222788644686    0.48239826506448    1.22273383880942
O           0.25340084188717   -0.83278492451841    1.31026509389993
C          -0.47269139383036   -1.19544549857591    0.22469906873266
C          -0.85900987757171   -2.57709301495952    0.06546336628605
C          -0.48208315452662   -3.52762779559801    1.02326057273255
C          -0.84003755038423   -4.84620170670474    0.87986983015614
C          -1.58500678806067   -5.26062499042997   -0.23347794495032
C          -1.96874909694126   -4.30745078304880   -1.19321800728358
C          -1.61182201212229   -2.99151092825220   -1.04289499369961
N          -1.89619646956923   -6.59436731786907   -0.29705713196994
N          -2.51936365233405   -6.98255756745633   -1.34836595985190
C          -2.81136478820714   -8.30349947496933   -1.38768297672929
N          -3.46146346539180   -8.80350868629924   -2.42550793695285
C          -2.51890252959460   -9.36007611826683   -0.44863071093382
C          -1.90502716721456   -9.55948385415801    0.78194108819904
N          -1.86876597390795  -10.76865120277263    1.31122575674211
C          -2.42339593585183  -11.77466082521201    0.64425455549675
N          -3.03082047442990  -11.73251661532907   -0.52587312094209
C          -3.06885076957901  -10.51537679842795   -1.05480367907375
N          -3.61952683838741  -10.11517086040363   -2.23958387586884
C          -4.26545499129616  -10.89271036828457   -3.17441180668530
C          -4.50044524879599  -12.23793924587374   -3.12621973933579
C          -5.19034852339666  -12.68495786886423   -4.27095551210458
C          -5.46017689856252  -11.68431478368686   -5.15027011299513
S          -4.88131810299663  -10.15560802082935   -4.61398163200958
H          -1.24452090950288   -0.04556659949366   -1.47982546915686
H          -0.05709199831075    2.01895740181120   -0.23004419394236
H           1.05038080779679    0.93584370015402    2.01094721760673
H           0.09525731970998   -3.20834832122179    1.87748076643596
H          -0.55113706776643   -5.58412124541481    1.61237776398440
H          -2.54783346762891   -4.64238502886938   -2.04026260313783
H          -1.91068169564880   -2.26604942737108   -1.78345733641635
H          -1.44624981921419   -8.75612715559672    1.34075912451469
H          -2.37057716651249  -12.74609559452438    1.11714612972990
H          -4.18828759952261  -12.85803733318399   -2.30698029483860
H          -5.47228590999542  -13.70993093404967   -4.42976923927483
H          -5.96879491889840  -11.74955145665096   -6.09123290597950
