34
         -50.642625673591          0.000892827053
C           1.09577436870283    0.02512249482407    0.72083518391534
C           2.56872326844618    0.00263204640316    0.44937247356227
C           3.38290983491731    1.04234191679997    0.89109292599708
C           4.73424761322821    1.04783095876287    0.62309061678936
C           5.31719093755140   -0.00665379688273   -0.08793133263905
C           4.50006774102499   -1.05284162737231   -0.53488648614672
C           3.14849914819623   -1.03908135603590   -0.26920233737041
N           6.66679523757806    0.09327912435897   -0.34855423549672
N           7.24770410212030   -0.97271069302521   -0.75268955472636
C           8.56299335351926   -0.86715279771109   -1.06366935525918
C           9.31429712224589   -1.95336358280451   -1.48017143507134
C           9.46381671280070    0.26198062121933   -1.05700680924575
C           9.32312869423943    1.60891069949450   -0.74208193795115
C          10.43084040346604    2.42424133797811   -0.85154295907753
C          11.66508714372674    1.92291835773152   -1.26663946341843
C          11.82884816837749    0.58961322135566   -1.58520142565269
C          10.71766181071665   -0.23479597721306   -1.47631197884394
N          10.59054787386876   -1.58289922349322   -1.72627296455259
C          11.65362133523157   -2.44281470437755   -2.15943363427657
H           0.89258483872761    0.41228921527545    1.71741796055450
H           0.66785971740846   -0.97087772429160    0.63425761907849
H           0.59339766474523    0.67431563535035    0.00220586684581
H           2.94298654069239    1.85824769425824    1.44793515297151
H           5.36627331494127    1.85224751463263    0.96773755686214
H           4.95362708305538   -1.85729503853222   -1.09461973833915
H           2.52539947587893   -1.84992812568893   -0.62186436873722
H           8.99124292784430   -2.96864987492157   -1.60990860808194
H           8.36621883330152    1.98858592757543   -0.42241892934455
H          10.34750949888769    3.47428870474478   -0.61226127144141
H          12.50942203296588    2.59269677436713   -1.34014043172277
H          12.78615308899497    0.20679013767647   -1.90640276864103
H          12.06258574136240   -2.09533127872081   -3.11208339002589
H          11.27216836640398   -3.45448923054967   -2.28540375625863
H          12.45948600483161   -2.45666735118445   -1.42006618425837
