35
         -66.733440254422          0.000678700048
C          -0.99634027683474   -0.10754806299116   -0.63577374010156
C          -0.13651525020389    0.97862566033235   -0.38003781047973
C           0.90218136922474    0.47014565774275    0.34291027908464
O           0.74240424561378   -0.84116073384516    0.54870549203547
C          -0.41800814851420   -1.21072290514741   -0.04616478137721
C          -0.83398691153253   -2.59088890515059    0.01877558050659
C          -0.05051866657724   -3.53097315336630    0.70189600761104
C          -0.42991279046392   -4.85017123836685    0.75833615322169
C          -1.61327426310956   -5.27228265631168    0.13607759473963
C          -2.40205005724728   -4.33097766783196   -0.54748857392921
C          -2.01722206438547   -3.01528429785006   -0.60331587334897
N          -1.88802403054354   -6.61495135239146    0.19990347474931
N          -3.01799306897343   -6.99829963973981   -0.20885357702586
C          -3.32599217281072   -8.29455863751318   -0.37981309078489
N          -2.56683888982348   -9.16901425525309   -1.01430888524435
C          -4.63392376495073   -8.84830352310315   -0.13405624658665
C          -5.84510303665196   -8.50553044979166    0.45481163641779
N          -6.84200844229145   -9.36214776541586    0.47193743353440
C          -6.66470980617700  -10.57712954680753   -0.07909494995076
N          -7.71169594225223  -11.41369275299177   -0.03228435322161
H          -7.62470952508211  -12.32906110352356   -0.43406480101459
H          -8.56425358736363  -11.10643735735479    0.39777903625371
N          -5.55130107504322  -11.03108505981878   -0.66673314535966
C          -4.57054173694644  -10.15176699276746   -0.67541454405495
N          -3.31498561468281  -10.29455879380241   -1.21290077703286
C          -2.85681074136693  -11.34267164733313   -1.87970617387415
N          -2.47397248261688  -12.25967522260532   -2.44835622668814
H          -1.91650266003270   -0.07385094481783   -1.18155931972022
H          -0.27000323129591    1.99453861548514   -0.68990554194910
H           1.78125318107158    0.92854880965049    0.75144360039816
H           0.86006652278363   -3.20343921265204    1.17960074115601
H           0.16715530584634   -5.58321985223347    1.27773399998792
H          -3.30699392630557   -4.66929262654843   -1.03002086823673
H          -2.62604047760822   -2.29933216161986   -1.13294970389603
H          -6.02473798284900   -7.54039022426441    0.90895195418091
