32
         -62.572035123414          0.000829083846
C          -1.15564122259614   -0.02528698617023    0.05609784146113
N          -0.36628895320513    1.06751977601337    0.10853545850899
C           0.86203126451203    0.62432681508954    0.08389103599857
N           0.90909561392626   -0.72417847309918    0.02793012051829
H           1.73606327451744   -1.29563102189377   -0.02097675962943
C          -0.38992482284166   -1.17745667412375    0.00238231693054
C          -0.76663960190817   -2.56620050088140   -0.05911665106369
C           0.16464458173059   -3.59132454163145    0.15919789805545
C          -0.21191504051757   -4.91095202764214    0.09104659933034
C          -1.53737979402458   -5.25639984062240   -0.20836997648989
C          -2.47806810026424   -4.23214240338287   -0.41901890922168
C          -2.09642743824168   -2.91773140460106   -0.34199740386861
N          -1.81895503743612   -6.59539585374459   -0.26041247652339
N          -3.00722539484394   -6.91445718889797   -0.61524492546060
C          -3.25561495576667   -8.24665081858233   -0.65117851195306
N          -4.45481336018265   -8.68314963061101   -1.00605926463546
C          -2.40134982124032   -9.37331558297524   -0.36130299161355
C          -1.10029349770566   -9.66175284915158    0.04005227193441
N          -0.71818327190345  -10.91521595127957    0.18704643616118
C          -1.59148649150159  -11.88874408966814   -0.05355159301870
N          -2.84645126209635  -11.76864697003458   -0.43792514238928
C          -3.22700934046538  -10.50820503107919   -0.58468335252145
N          -4.41679698102945   -9.99498704807980   -0.96083581247051
F          -5.53684039458118  -10.69087781467094   -1.28360841977092
H          -2.22183000658105    0.07399608374645    0.07742479009567
H           1.73624168912065    1.24414446461721    0.10524251848067
H           1.19054961165009   -3.35241273118361    0.40049532152857
H           0.50285492994138   -5.70175300241487    0.25922734102337
H          -3.49633897278697   -4.51254316409878   -0.64068907635434
H          -2.81975004987643   -2.13568152525324   -0.51162024162771
H          -0.37114106431991   -8.88997940890683    0.24210142582742
H          -1.23001608948316  -12.89865460478449    0.08192013275684
