36
         -61.274634344817          0.000780529708
C          -1.22439414379199   -0.04531605773838    0.07002422651844
N          -0.44909914963865    1.05600190239725    0.18994174122895
C           0.78189450098706    0.62494405565898    0.21014225789568
N           0.84556191607801   -0.72108453106881    0.09815777295016
H           1.67533842756552   -1.28998655936833    0.11199638717864
C          -0.44612342649462   -1.18501103954472    0.01096942141374
C          -0.80141813867406   -2.57744772424107   -0.12634089859447
C           0.14527974200470   -3.54532664307874   -0.48267278263453
C          -0.21376364057993   -4.86502410764204   -0.62564604269862
C          -1.53432618248567   -5.27083228901130   -0.39758689350507
C          -2.48720635534007   -4.30359188210267   -0.04048550530256
C          -2.12489412764452   -2.98595849442139    0.08719426540677
N          -1.82254119434374   -6.59620097357719   -0.61004220163170
N          -2.94505576801540   -7.01264049465957   -0.15494564974018
C          -3.26130176083147   -8.29544872981461   -0.43589985839271
N          -4.40396002732879   -8.79402516236017    0.03460315391363
C          -2.57705887243866   -9.30555595421680   -1.20325256817107
C          -1.39163915978539   -9.37909907090569   -1.93056039913361
C          -1.08845142162521  -10.57496172005011   -2.54210636792213
C          -1.93226681407816  -11.68935751008608   -2.44344416057146
C          -3.11031181916309  -11.64397676585702   -1.73319315638912
C          -3.41873447210961  -10.43633539027624   -1.11557289821517
N          -4.48788592027846  -10.04866749232457   -0.36164273250929
N          -5.54570462862908  -10.85058152981225    0.02204373002244
H          -2.29005271270696    0.04555771310507    0.01600793272888
H           1.64863099322591    1.24859098634072    0.30210093125877
H           1.17046642812124   -3.25948672016791   -0.67181652691207
H           0.51642292789877   -5.61024990323739   -0.90159439233840
H          -3.50445585279788   -4.62586506097544    0.12100505970004
H          -2.86162489049997   -2.24883133020426    0.36572469035411
H          -0.74719141562846   -8.51822644874983   -2.00282905154001
H          -0.17726509636129  -10.66510889554551   -3.11473657242827
H          -1.64699599226806  -12.60522323983010   -2.93933893993674
H          -3.76328955246359  -12.49793559599102   -1.64709716737842
H          -6.19433522302454  -10.99944741268533   -0.75144525332395
H          -6.03343717685607  -10.37823992795767    0.77934844870046
