42
         -71.266601255944          0.000609960316
C          -0.97062191694693   -0.15486884705449    0.25724727259128
N          -0.61736659401974    0.96499363281748    0.92761472715163
C          -0.51116345286112    0.61229940275559    2.17906675751489
N          -0.77550451387442   -0.70202733804125    2.35539051035752
H          -0.77591311871357   -1.20388852510861    3.22736791329539
C          -1.08195804558878   -1.22674621804426    1.12170350202676
C          -1.42167560827894   -2.61003221380745    0.88706171634454
C          -1.25287742929627   -3.58906178699035    1.87422241938268
C          -1.56872788052995   -4.90449501417411    1.62753900378684
C          -2.08716871208320   -5.28982660747171    0.38530411411573
C          -2.25514097400955   -4.31240585298826   -0.60855923603883
C          -1.92526957124179   -3.00352875805423   -0.36010986315806
N          -2.32014550299023   -6.62806990601987    0.19089077774982
N          -3.08146355538723   -6.94055844142913   -0.78909328328479
C          -3.23405273440845   -8.26228564110564   -1.04650983343233
C          -4.08240826666305   -8.72570016689310   -2.03038960720933
C          -2.61671361930761   -9.43205607500960   -0.45973577771861
C          -1.68425466301474   -9.60534075503164    0.55505866645887
C          -1.29874472613082  -10.89151487859926    0.87465316803868
C          -1.82646218762712  -11.98989792161958    0.19912701136750
C          -2.75307822437937  -11.83973687757653   -0.81538967964550
C          -3.14525573554130  -10.54960848239212   -1.13973333313201
N          -4.04253632451224  -10.08710375474890   -2.09731208947794
C          -4.78765274509475  -10.83207206952691   -2.98685166383248
C          -5.66799850041224  -10.42998779436352   -3.95786048811378
C          -6.13947865497213  -11.61897427922836   -4.56337949871582
C          -5.52017765341741  -12.64444839090615   -3.92412620230054
O          -4.69519764219987  -12.17498219250050   -2.96351047028321
H          -1.11132176916080   -0.12854392240969   -0.80410913706335
H          -0.24603782351957    1.27169192097593    2.98135915797398
H          -0.85225394231552   -3.32329111201690    2.84265079832081
H          -1.43823326232737   -5.65679504549783    2.39060698423045
H          -2.63849530614159   -4.62152579536628   -1.56941802806220
H          -2.06097126174795   -2.25945385164618   -1.13012557049258
H          -4.71316103246789   -8.15109280909110   -2.67817466431862
H          -1.28526350763116   -8.74580938387497    1.06877462615184
H          -0.57689554760533  -11.05471737159782    1.66129504640743
H          -1.50322585396621  -12.98340548253827    0.47226085302275
H          -3.15021010707009  -12.69807487612758   -1.33128878076563
H          -5.94628382224775   -9.42974952810663   -4.21354651200443
H          -6.84455682925365  -11.69010492452480   -5.36526551671118
H          -5.56922138104147  -13.70740206506802   -4.04434579052863
