36
         -61.655672090736          0.000372259136
C          -1.17280633831441   -0.06968066934805    0.01674029550300
C          -0.43500440344406    1.12237493437715    0.13083619445664
C           0.90345593250370    0.90353793839647    0.21984875288289
S           1.29062710403791   -0.76515611779700    0.16040544591566
C          -0.39275017948773   -1.19875800193684    0.01637953254928
C          -0.79244275304603   -2.58156251093404   -0.08596264430045
C           0.16653640108246   -3.58983855591712   -0.25219790116297
C          -0.20184166278431   -4.90647507038433   -0.37494102304646
C          -1.55359445734873   -5.27260388153895   -0.30839581211436
C          -2.51912073819947   -4.26862694586992   -0.13144424870642
C          -2.14383377648871   -2.95213932270830   -0.02878562008963
N          -1.85002819048091   -6.59300169026190   -0.51423553018073
N          -2.99115356674119   -7.01111496116084   -0.12399675778517
C          -3.29905618788273   -8.29617327603972   -0.44924779233738
C          -4.43441980830390   -8.91936439641663    0.00966908229625
C          -2.61239165918017   -9.24800334240924   -1.30436089648552
C          -1.44099978965713   -9.20236776817971   -2.05011445489230
C          -1.08433485735140  -10.32526900993127   -2.77137564785966
C          -1.86819040916959  -11.47762516974453   -2.76212729708440
C          -3.03931286590584  -11.54464071067626   -2.02993912870169
C          -3.39208945083740  -10.41789192780989   -1.30876061587227
N          -4.50229994387942  -10.19668249331039   -0.49397320862156
C          -5.45774263777128  -11.07586245155136   -0.25139741346146
N          -6.28178679032561  -11.84568148029449   -0.04731977151486
H          -2.24357523781808   -0.08495845373482   -0.07409738922623
H          -0.88070853895337    2.10101520122153    0.14589629264549
H           1.69259668825137    1.62258721741942    0.31555495177019
H           1.21133645129039   -3.31723404126583   -0.29550697557136
H           0.53866900203405   -5.68086041524083   -0.50356366120261
H          -3.55879185441713   -4.55809289550838   -0.09488341322953
H          -2.90009944040647   -2.19435858280905    0.10687185902737
H          -5.19349657413298   -8.54474487109486    0.66871691365683
H          -0.83879590938070   -8.30848720537966   -2.05466281808049
H          -0.17786045608609  -10.31414883893203   -3.35782774135192
H          -1.55646268448512  -12.33511982207926   -3.33886558469530
H          -3.65409041691929  -12.43192041114953   -2.01897597312907
