28
         -53.063225394797          0.000822480491
N           1.17350689542637    0.05587567261067    0.42869917261865
C           2.51156364181806    0.02755629367706    0.21541027575719
C           3.34683227962498    0.99925501191739    0.79111522716533
C           4.70129805786480    0.95903219155282    0.59060461548444
C           5.27896144156761   -0.05453280669227   -0.19471005114282
C           4.43963869283936   -1.03226474953916   -0.76777140744814
C           3.08769317909126   -0.98977905408535   -0.56606749842556
N           6.62906730610931   -0.00665593554074   -0.35118883565568
N           7.16182683246105   -0.92346538544762   -1.07805931094139
C           8.51040519642672   -0.83528194898186   -1.19536592663743
N           9.15667191743762   -1.68057429352660   -1.96630419096422
C           9.44367780182252    0.08367396715155   -0.57173586231178
C           9.46152537679140    1.16453948305281    0.30020534676255
N          10.60885370756791    1.74636597423918    0.60420625490016
C          11.72702327744021    1.27536132661226    0.06854157162015
N          11.85607057910880    0.25769973766484   -0.76390926388109
C          10.70428158920669   -0.31636645113938   -1.06720122437631
N          10.47833545187961   -1.38527193569423   -1.90288169082557
C          11.39285854810159   -2.06785484825886   -2.58173155500283
N          12.19285643852140   -2.64590582054657   -3.15946640907001
H           0.75633156136762    0.83038778873810    0.91235288353948
H           0.57264153180136   -0.59162980715974   -0.04801331417567
H           2.90441146359409    1.77961762112342    1.39341630995395
H           5.34820659355064    1.70379118973540    1.02763780444777
H           4.89630509810333   -1.80410890759167   -1.36803439421697
H           2.44375664735850   -1.73743338869713   -1.00723550903659
H           8.56431495878386    1.56339635446732    0.75179591145165
H          12.64178393433441    1.78252272035863    0.34266107041241
