37
         -60.558257969259          0.000931181260
C           1.26796687835185   -0.10917721043848    0.78663593442865
C           2.74932019879248   -0.08334023265863    0.57406186880625
C           3.52553504286144    0.93924091861133    1.11357368643611
C           4.88630095605947    0.98346722514297    0.90189781780256
C           5.51246455295812   -0.01556452806155    0.14729060686419
C           4.73364602186325   -1.04456251856427   -0.40132362480465
C           3.37415958067856   -1.06838889088472   -0.18837393783358
N           6.86927554935195    0.11359553501529   -0.04415704250277
N           7.47044480101464   -0.90519947538248   -0.52724794050447
C           8.78177434181710   -0.74660072843619   -0.82183241894241
N           9.50900261058159   -1.80961495249266   -1.12616401392540
C           9.58520528754659    0.44622041273492   -0.94585934498073
C           9.35623731603530    1.80593400016107   -0.76886457386821
C          10.40825934118338    2.66676621191411   -0.99300066236815
C          11.66049928256851    2.19286591587541   -1.39416949003415
C          11.90629444769261    0.84924055790294   -1.58336634033200
C          10.85166417612059   -0.02622388950942   -1.35157067234187
N          10.74099516096620   -1.39825776929977   -1.43492921951459
C          11.68177285886841   -2.35003163539489   -1.75788722566836
C          11.46509548513466   -3.70117569023148   -1.75950609153250
C          12.61151315694617   -4.42908779923300   -2.13353925610874
C          13.67666884967249   -3.63607020920976   -2.41145085973571
S          13.30891670341800   -1.96435402934164   -2.22146189792385
H           1.00610112751535    0.32365423479006    1.74951007601858
H           0.88562113014509   -1.12618397348956    0.73769371363199
H           0.77163627916248    0.47476272758288    0.01019083532755
H           3.05020789003169    1.70680785046707    1.70812810793272
H           5.49088988478185    1.77239810565062    1.32235167702086
H           5.22662050275011   -1.80311083671294   -0.99028726538324
H           2.77837166022019   -1.86277982320324   -0.61697811815092
H           8.38352119319422    2.15391218020474   -0.46106548348665
H          10.27031079305182    3.72918551051628   -0.85834694973758
H          12.45832094165373    2.90015139355386   -1.56484149009374
H          12.87672551201082    0.50526170096949   -1.90137489046510
H          10.51619810735179   -4.12926999043947   -1.49854683497506
H          12.63934006304767   -5.50193454436401   -2.19225851772482
H          14.66425231460049   -3.91697575374310   -2.71722016132901
