30
         -47.723910211403          0.000723854018
C           1.20297443702864    0.19754340032080    0.19196533169316
C           2.69327216439848    0.13349807996106    0.06962616971879
C           3.51237051176960    1.01693510557150    0.76498199464201
C           4.88459628964231    0.95438479952677    0.64344013363278
C           5.47583131890102   -0.00564921586697   -0.18364539072352
C           4.65225905166516   -0.89414594100517   -0.89115373740996
C           3.28526156909447   -0.81927091264402   -0.75995655809745
N           6.85243495430483    0.01377582053954   -0.24794618325060
N           7.39928568495181   -0.91506083437957   -0.92322116076970
C           8.74187564333290   -0.88221318586471   -1.09621860333085
N           9.52299808824962    0.19161622224715   -1.04354247438542
C           9.51282500522526   -2.02854880868319   -1.49488334491902
C           9.25166794793329   -3.37903723985563   -1.70667603782469
C          10.30289979528571   -4.18460657983758   -2.08298035452997
C          11.59755226492628   -3.67488777761417   -2.24219012425350
C          11.88301870670832   -2.34404304668476   -2.03396308545938
C          10.82322959922732   -1.52556937847369   -1.65717615772724
N          10.75089094410556   -0.19315418246267   -1.38217396480239
H          11.48544845509687    0.49365930791416   -1.44819824424841
H           0.90273982913150    0.91691272163400    0.94946781653895
H           0.80020441831709   -0.77941201236016    0.45571498359339
H           0.75988814626051    0.49130099703791   -0.75959305298383
H           3.06496303498381    1.76143707681726    1.40822454186649
H           5.52641613540830    1.63544513501578    1.18031052668137
H           5.11589233483564   -1.62819214886575   -1.53287206180779
H           2.65346413084103   -1.50685609300236   -1.30532763476222
H           8.25373144685264   -3.76819044500903   -1.58179731159062
H          10.13373926209831   -5.23607441079987   -2.26167734259705
H          12.39032895325665   -4.34698391475437   -2.53560649586595
H          12.88116987616697   -1.95132253842214   -2.15360217702733
