37
         -61.025146396850          0.000272502924
C          -0.70391445771558   -0.11965786168443   -0.53516683678852
C          -0.13561719292498    0.96985623922791    0.07123608080324
C           0.49087498105969    0.44834178725290    1.21700367981723
N           0.31681563922141   -0.84995848077600    1.29825014831821
N          -0.41106160954493   -1.20182341585632    0.23240901013640
C          -0.77240003718060   -2.53367168107390    0.03872108899312
C          -0.35061062250076   -3.48206987004140    0.97305666357931
C          -0.69800956799995   -4.80389548730592    0.82347621026360
C          -1.47352341245213   -5.21513424560086   -0.26782377297535
C          -1.88895482549834   -4.25771512756913   -1.20482036651516
C          -1.54401912335284   -2.93527949141495   -1.05378489344300
N          -1.79998971877078   -6.55151396127049   -0.32344537639806
N          -2.44652089095606   -6.92742766947212   -1.36267853144224
C          -2.79675905414462   -8.23356929470767   -1.40080531935088
N          -3.48140102856880   -8.68590493536061   -2.44686505259478
C          -2.57078636293287   -9.31092874843722   -0.46847520766594
C          -1.93642589321574   -9.45388924632323    0.76196933605524
C          -1.94514375660819  -10.70170173719851    1.34526823676257
C          -2.56782385208247  -11.79562019212556    0.73197776253815
C          -3.20064176807691  -11.67967458931034   -0.48571446375165
C          -3.19298483163570  -10.42156991460093   -1.08003258595854
N          -3.71585895335156   -9.97309264872829   -2.26002372153535
C          -4.44648409375484  -10.73151404847744   -3.23073429703879
H          -1.27780602499325   -0.18520696807106   -1.43568706345241
H          -0.16272271177042    1.98939014491463   -0.25370870320319
H           1.05083333037414    0.96807920001266    1.96874834423173
H           0.24520386931422   -3.14741058344342    1.80694949436664
H          -0.37837955614840   -5.54363381039424    1.54066284186025
H          -2.48818481184493   -4.58669674350316   -2.03989551411952
H          -1.87788213839462   -2.21628705456582   -1.78561532507710
H          -1.46077959566082   -8.60614931870853    1.22739570872566
H          -1.46224017617457  -10.84845465193167    2.29997798387001
H          -2.54932273295584  -12.75389456537768    1.22991674799460
H          -3.68016815311046  -12.52410368238348   -0.95677243425547
H          -3.84863031255924  -11.57299515551662   -3.58676762476551
H          -4.67673511353865  -10.06965090595464   -4.06246574639367
H          -5.37552543954922  -11.11245128422199   -2.80053650159032
