34
         -61.376057219647          0.000431821808
N           1.25429482622724   -0.06471196904561    0.75470572036827
C           2.59611415582902   -0.05341823157297    0.52263135602895
C           3.40337716772125    0.96382480378791    1.05244486649169
C           4.76097902701924    0.94858483028496    0.85723422969697
C           5.36624193157397   -0.08643438273138    0.12671890006024
C           4.55465038861169   -1.10629520145553   -0.40578892073994
C           3.19936995965865   -1.08694293917460   -0.21202868929565
N           6.72146696943820   -0.01471794806416   -0.02401597895377
N           7.28743913048500   -0.99501673591097   -0.62453656584139
C           8.60710020886100   -0.86040194341304   -0.87820454529114
N           9.33991193539403   -1.90907771945213   -1.21316609039646
C           9.41488926239240    0.33437049071500   -0.95064492942596
C           9.30699069679943    1.70540978342344   -0.76979726390921
N          10.36369174268913    2.47952258389055   -0.94847357495417
C          11.50770676360261    1.91668470903795   -1.32071087312996
N          11.74772207129938    0.64040436232290   -1.55078154708122
C          10.68860369420007   -0.13766777893572   -1.35480804525744
N          10.58243948552768   -1.48913604181157   -1.49194398534813
C          11.56429538701678   -2.38378902891852   -1.85222443614762
C          12.87180871847521   -2.12150109846682   -2.14712018335889
C          13.57602049956157   -3.29805078143277   -2.47530870720888
C          12.79996104616735   -4.41190457470164   -2.42329683995734
S          11.17475115128665   -4.06583543327129   -1.97059131988988
H           0.81631493833806    0.75405396809987    1.13766695405956
H           0.67502082595171   -0.70351611815574    0.23971668113553
H           2.94030848900975    1.76010280428180    1.61754127316492
H           5.38811649805240    1.72751091147204    1.26247923287049
H           5.03133023666742   -1.89513600789390   -0.96732244429889
H           2.57618492224742   -1.86925442343846   -0.62231929372874
H           8.38218418176930    2.18463443179435   -0.47939510232117
H          12.34452479871081    2.58848695247242   -1.45852840875736
H          13.28965721824828   -1.13248507025909   -2.12605793918889
H          14.61816366354707   -3.30977878889853   -2.73855287283492
H          13.08149800762049   -5.42617841458094   -2.62376065656157
