36
         -65.652018136952          0.000478480544
C           1.78119498413892    0.24168751586545   -0.43929148722603
O           2.66451692400022    0.10351161830191    0.64963628180336
C           3.21170417169760   -1.10555718714377    0.90474906005021
C           4.07563497286651   -1.16096621950335    2.00757948889977
C           4.69307231916446   -2.33597157745130    2.35146180867948
C           4.45943825323155   -3.50412327673860    1.60836751078511
C           3.59188514682454   -3.44421017591737    0.50782355571445
C           2.97889138750480   -2.26334411052163    0.15753639532211
N           5.13746064091514   -4.62629016975503    2.00422643954866
N           4.83107036879482   -5.72337339130290    1.42182246702948
C           5.60193851191850   -6.79107049405484    1.72931087685663
N           5.21006579467145   -8.01556456924900    1.40878791624415
C           6.92209608551543   -6.84255840134126    2.30712544275002
C           7.89740038513462   -5.99644305061608    2.81955553279019
N           9.03136121088103   -6.49896954888007    3.27178196553846
C           9.21918138510780   -7.81371001017441    3.20693413891523
N           8.39607238987950   -8.72699700908566    2.73151905415243
C           7.25069026172212   -8.22067817942247    2.29119926636244
N           6.18567552372753   -8.87274509717199    1.74801839382317
C           6.03014067557653  -10.22590007765474    1.54501888967240
C           6.84628719216207  -11.30410853206605    1.79165278328847
N           6.21202535400075  -12.43631265428155    1.40293127094237
C           5.05105579906882  -12.07055610267326    0.93591358781462
N           4.88286390432502  -10.72689815348868    0.99669674964389
H           4.09884901242561  -10.16033260661406    0.71426880735549
H           1.47738710363311    1.28731732360572   -0.43987393852856
H           0.89682642650793   -0.39204139840790   -0.32088862280912
H           2.27436060066915    0.00792299090745   -1.38799212673139
H           4.23899459176049   -0.25517586954939    2.56973904509295
H           5.35809981133563   -2.38606929332284    3.19922906544131
H           3.42273053128539   -4.34593963706949   -0.06099451348482
H           2.32138905281805   -2.24503839725337   -0.69787007474818
H           7.77039628816824   -4.92388693678608    2.87161954114153
H          10.16513660595566   -8.17687185198197    3.58528347355578
H           7.82789336169195  -11.31366441642870    2.21614891825428
H           4.30968297093407  -12.73884105277373    0.54788303605944
