39
         -72.073771690365          0.000544883941
C          -0.67996763090590   -0.12026991101973   -0.60687733828178
C          -0.04990632167342    0.96032721833012    0.04181729697732
C           0.49429938616798    0.44564942143417    1.18101738444322
O           0.24533681462437   -0.86491122847712    1.27772120262616
C          -0.47432700552224   -1.22686888284844    0.18766359041356
C          -0.87635393238707   -2.60462540886212    0.03594810521978
C          -0.51750983711937   -3.55183279669591    1.00415462236022
C          -0.88791485095654   -4.86739336343583    0.86769837223061
C          -1.62864680045463   -5.28317459761387   -0.24852721669894
C          -1.99470275433970   -4.33288550383407   -1.21812236083779
C          -1.62505004767499   -3.01966847357149   -1.07500016138768
N          -1.94613978617673   -6.61459591492769   -0.30372758142215
N          -2.57471906439441   -7.01124916695561   -1.34945865877246
C          -2.86214619520630   -8.33383363406762   -1.37260772177029
N          -3.51781523083339   -8.84589603484721   -2.40388622377140
C          -2.55955263276509   -9.37969383428580   -0.42624924590544
C          -1.93664767355722   -9.56673147089996    0.80244902981783
N          -1.88524604946911  -10.77230469979222    1.33652945339620
C          -2.43561750452134  -11.78856253955442    0.67925291948998
N          -3.05456442197988  -11.75847479176903   -0.48441229372831
C          -3.10527535313844  -10.54478953003302   -1.01810810195703
N          -3.66646996943973  -10.16048328763070   -2.20017590844867
C          -4.31710218259411  -10.94670857356492   -3.12441555705832
C          -4.59674070890262  -12.29198302358117   -3.16842820640207
N          -5.26738229792933  -12.56601140764967   -4.31252172109277
C          -5.39694752703269  -11.43515478833310   -4.94828272046936
N          -4.83390319532513  -10.40683407253657   -4.26884514519649
H          -4.77576501292682   -9.42952840361681   -4.50708399366867
H          -1.21130593450640   -0.08087006667831   -1.53511905006769
H          -0.00645332244004    1.97692101010156   -0.29096599194013
H           1.06046047237709    0.89799289843527    1.97130696364565
H           0.05636002483010   -3.23212247010671    1.86046156134054
H          -0.61251140370375   -5.60284105006141    1.60770287506921
H          -2.57007131981485   -4.66678630834759   -2.06808324404371
H          -1.91051016318675   -2.29649557183869   -1.82309507194238
H          -1.48237146020849   -8.75572739482256    1.35423345506511
H          -2.36662898470202  -12.75657224420029    1.15641494523485
H          -4.35222071767563  -13.04703209384043   -2.45156178804569
H          -5.88634940453483  -11.31783800800079   -5.89353647442054
