39
         -72.053502972127          0.000845500261
C          -0.65165543842487   -0.13651205596528   -0.56181067211538
C          -0.04496887719503    0.93695012554083    0.03305649403806
C           0.53731241307354    0.41094172047494    1.20197860593457
N           0.30238906453895   -0.87463977012833    1.30663709344663
N          -0.42262793966739   -1.21615136178388    0.23399788657033
C          -0.82824139179425   -2.53380891781981    0.05520224304771
C          -0.45351166257243   -3.48247535935511    1.01116793843153
C          -0.82908061101426   -4.79629339025948    0.86715687746602
C          -1.58625700631206   -5.20011547191748   -0.24151168505373
C          -1.96505943811340   -4.24071812300977   -1.19433290631235
C          -1.59275201201288   -2.92630962227842   -1.04748460713252
N          -1.90879251935276   -6.53225940802132   -0.31020130229789
N          -2.54386316607044   -6.90747222384527   -1.35755637415422
C          -2.84441624127686   -8.22738895933511   -1.40597318330079
N          -3.49857388029731   -8.71138881434976   -2.44956236450340
C          -2.56145209017452   -9.29234379453612   -0.47413579310448
C          -1.95313178394210   -9.50647190210413    0.75737579638080
N          -1.92650486814381  -10.71963645161617    1.27571396204067
C          -2.48712722788071  -11.71677650279131    0.59823911303478
N          -3.09300974380438  -11.65911080780536   -0.57077867268081
C          -3.11928334520885  -10.43963294914621   -1.08898851673226
N          -3.66680286917006  -10.02512977290212   -2.27243754792943
C          -4.32611740674772  -10.77705376986833   -3.22276936303397
C          -4.91739249357751  -10.38087093166100   -4.39253863150583
C          -5.43466731426253  -11.56637926527763   -4.96325966871809
C          -5.11847921804345  -12.57391020060782   -4.10327763084749
O          -4.44273564868846  -12.09989322266439   -3.04044409073704
H          -1.21161305882427   -0.19427388304248   -1.47151387951001
H          -0.01775843183196    1.94962306771323   -0.31223510839750
H           1.10741683452328    0.92095138552190    1.95258215643270
H           0.13335352403824   -3.15339637592716    1.85350011962002
H          -0.54273405988422   -5.53671179354280    1.59735937964649
H          -2.55397297925275   -4.56337893216186   -2.03911995021914
H          -1.89564510652676   -2.20574652296306   -1.79087143555258
H          -1.49131510465651   -8.71024584875885    1.32434943781146
H          -2.44336939380098  -12.69218045663504    1.06370309716022
H          -4.96442021440628   -9.38212501603019   -4.77098025910803
H          -5.96830983130773  -11.65160185000789   -5.88698927243953
H          -5.30727946193401  -13.62811257113505   -4.12832728567553
