29
         -52.785972555640          0.000795137180
C          -1.14715449166763   -0.05099212753194   -0.01266139460230
N          -0.34115623302729    1.03084863950279    0.01792614300609
C           0.87951019287603    0.56814010415675    0.00667878413810
N           0.90545187361088   -0.78182728191204   -0.02194819946489
H           1.72323835078732   -1.36707594640649   -0.05198637830482
C          -0.40013585582583   -1.21550256384778   -0.03953074338628
C          -0.79795054080211   -2.60020033160289   -0.06704981299429
C           0.12630857346356   -3.63521289514315    0.12961051353428
C          -0.27229433198477   -4.95046922452659    0.10163470916407
C          -1.61418849473748   -5.27991370894396   -0.12711498677006
C          -2.54687551461623   -4.24709350053222   -0.32144432245393
C          -2.14227367202935   -2.93698640894963   -0.29052378367198
N          -1.91522834916154   -6.61957773445011   -0.14355024415089
N          -3.13718504229534   -6.92549583051655   -0.34037010625750
C          -3.40743922415298   -8.25720277752572   -0.42394380730412
C          -2.51934214832187   -9.35933445584400   -0.66917082672282
C          -3.32551032427634  -10.44848726432357   -0.73145179586698
N          -4.65946804415502   -8.67513696769758   -0.35034255411648
N          -4.61209733427970  -10.00016401489177   -0.52728255046396
C          -5.69303026559417  -10.77109118073648   -0.50162531671456
N          -6.59767194815736  -11.47151601772996   -0.48726771870218
H          -2.21138960725917    0.06612772469565    0.00031621180651
H           1.76342190005906    1.17397305940300    0.01928037986913
H           1.16575219367302   -3.40935260205901    0.32034688786120
H           0.43632248737523   -5.74970515921348    0.25529494710623
H          -3.57832409775190   -4.51475182160993   -0.49348434452882
H          -2.86104439512568   -2.14798493794541   -0.44703303678169
H          -1.45793808874428   -9.29886950212143   -0.78491112135278
H          -3.12570756787821  -11.48878527169723   -0.89485553187576
