29
         -52.984490489915          0.000590601833
N           1.30711472191691    0.09798218178201    0.91529338079352
C           2.43968068061345    0.01788357026641    0.74778261806744
C           3.83171694495195   -0.07530474322241    0.54152373149381
C           4.70769598988407    0.66353967102903    1.34575533133961
C           6.06276534462731    0.59071886133515    1.13218319867478
C           6.57818977370840   -0.24412289220420    0.12879455413932
C           5.69329681363807   -0.98726463541209   -0.66968926869956
C           4.33625018516239   -0.89911485861986   -0.46966015616260
N           7.91919561759752   -0.18190700935824   -0.12498708846253
N           8.51582148000731   -1.21722473834812   -0.55793093919475
C           9.80489265905472   -1.06397568391601   -0.94963333629124
C          10.59317063080575   -2.13905335202552   -1.33200951656617
C          10.62212359097403    0.12114963412702   -1.09250266838866
C          10.40388213282350    1.47841125993342   -0.87900504295874
C          11.43927378502899    2.35488665450249   -1.13206857536279
C          12.68008380137603    1.91004290901206   -1.59178719344612
C          12.92566035669199    0.57039209944686   -1.81587338499632
C          11.88482497611029   -0.30882943610821   -1.56099575166602
N          11.80175055337220   -1.66756005442267   -1.68092474024190
F          12.82898220561752   -2.46622921562825   -2.10629906611106
H           4.30670794442644    1.29454824773838    2.12540866407619
H           6.75153621200638    1.15240703953139    1.74442788472149
H           6.10508676916569   -1.60978006457821   -1.45013926183025
H           3.65174039759289   -1.46607526990565   -1.08417507228801
H          10.35783538361487   -3.18392112032949   -1.36435756923703
H           9.44497003063604    1.82053177907420   -0.52464038330487
H          11.29089884913323    3.41213175548997   -0.97234607831509
H          13.46282082659165    2.62935666074171   -1.77756492789449
H          13.88036134287140    0.21783075006854   -2.17391934188803
