36
         -61.622049289823          0.000357658242
C          -1.17807898522408   -0.02289600207572   -0.26262732271320
C          -0.30555097166105    1.05581592001793   -0.00978689478063
C           0.86495310836268    0.49874748020000    0.40891969020661
O           0.77504210091844   -0.83710643610667    0.43095866945154
C          -0.47342391510534   -1.17047512284510    0.02154292404440
C          -0.84082283184224   -2.56644933337732   -0.04926708782333
C           0.08816345690252   -3.55530228696978    0.29551514295139
C          -0.24782231902377   -4.88638739806532    0.22909577362592
C          -1.52872229618917   -5.27543064164524   -0.18411411386148
C          -2.46242990283795   -4.28450432106500   -0.52867490210147
C          -2.12186852028902   -2.95624024947097   -0.46191739073434
N          -1.77223635952487   -6.62811531510124   -0.22439339844027
N          -2.95318714757381   -6.97685512226565   -0.58476972575893
C          -3.18693405654696   -8.30621044285634   -0.62717173018013
N          -4.38649853792839   -8.73898137796539   -1.01497695537019
C          -2.34741646387555   -9.43578490764336   -0.31565287053854
C          -1.03547947172295   -9.61976397464686    0.11381954265017
C          -0.59759436511295  -10.91193080515515    0.29998763212602
C          -1.43258923925656  -12.01418821057552    0.07312486772098
C          -2.73312950498463  -11.86136971178184   -0.35084945111499
C          -3.17669933951854  -10.55667729163074   -0.54099909631248
N          -4.37542119986967  -10.05604556346024   -0.95807238393584
N          -5.50745238944812  -10.79320997209746   -1.25043477995365
H          -2.18875917219106    0.04578290038929   -0.60813062177714
H          -0.51840773649125    2.09900949622494   -0.12341356639947
H           1.79863304767723    0.93276577484654    0.70817473192568
H           1.07541917184017   -3.25702659083635    0.61441788045717
H           0.46453698714439   -5.65273488948851    0.49377029362246
H          -3.44542360939292   -4.59838765394043   -0.84532174742704
H          -2.84613674778035   -2.20212448581200   -0.72932861985968
H          -0.39972119638839   -8.76710870008142    0.28738950819972
H           0.41502762195247  -11.08940825652508    0.63081572669835
H          -1.04169761585175  -13.00748639503336    0.23690742699640
H          -3.38491608171565  -12.70381955391978   -0.52034940145230
H          -5.40935352160075  -11.27846226308026   -2.14217494589023
H          -6.29072199585036  -10.14703829616050   -1.30485280425150
