34
         -61.848824292506          0.000462929646
C          -1.10085626841684   -0.08370517269406   -0.31545099144878
C          -0.24983465184532    0.97723693456153   -0.15541286384618
C           0.97205191961936    0.39459012434975    0.22936188826662
N           0.86934063620980   -0.91108624996643    0.29755400800071
N          -0.39250639137102   -1.20995716691064   -0.03410763658091
C          -0.81506707920527   -2.53578314212002   -0.05322818704871
C           0.09393276270387   -3.53118197663637    0.31467828907619
C          -0.28720964969958   -4.85196120740243    0.31226099877511
C          -1.58796243695178   -5.21415603298307   -0.06059821498307
C          -2.49351483070912   -4.21014832041373   -0.43468929889769
C          -2.11352803846538   -2.88866512780108   -0.42939557691024
N          -1.87391576288175   -6.56077565905388   -0.03585835486897
N          -3.06248326565841   -6.89312109018868   -0.33166070002763
C          -3.37868317696725   -8.20239981031703   -0.43808929070959
N          -2.57408780692379   -9.16793870043009   -0.86457382071570
C          -4.70847235085888   -8.71571775387437   -0.26608505058679
C          -5.97386194608052   -8.30299328921742    0.13528929579191
N          -6.97531556451308   -9.15336366099258    0.15347724942511
C          -6.74978751752406  -10.43154586649002   -0.21068792805942
N          -7.81709025644590  -11.24918821710582   -0.16988516031486
H          -7.70844526401835  -12.21387691766248   -0.42039987274218
H          -8.70055608269852  -10.87894318308816    0.12593413229084
N          -5.58958261024200  -10.96147645038456   -0.60200761374362
C          -4.59561942043342  -10.08533108317430   -0.61946106682792
N          -3.30781585517021  -10.28547255414541   -0.97670365407623
H          -2.88900941886137  -11.12784620334201   -1.33691278092396
H          -2.13217726137717   -0.10260731564114   -0.59928608478067
H          -0.46470978165992    2.01686879025515   -0.29179950201045
H           1.90218933360867    0.87759030490727    0.45333409572601
H           1.09057491080064   -3.23251445538297    0.59707020515639
H           0.40217289784540   -5.63191537678383    0.59382446153489
H          -3.49293162934103   -4.49807143123583   -0.72350921947405
H          -2.82654741991715   -2.13306772620761   -0.72010508029142
H          -6.19265072255006   -7.28760501242781    0.43738332582547
