31
         -55.402726716488          0.000980477893
N           1.24937241409095    0.07926622139528    0.19556195189969
C           2.60683038318164    0.06370149379368    0.01482111947600
C           3.40010311111767    1.12097170539647    0.47720566323618
C           4.76666527068157    1.07593043218971    0.34984584807716
C           5.39378094042785   -0.02957357286226   -0.24305510482084
C           4.59466524071149   -1.08828840053962   -0.71029252190532
C           3.23042966134748   -1.04054757044599   -0.58274582432201
N           6.75947524069095    0.02021703900453   -0.33304089203157
N           7.33530889389743   -1.02114765448030   -0.80151458022692
C           8.66579311669711   -0.98842030239500   -1.00805880570756
N           9.42847488238739    0.09572318792641   -1.17398220963835
C           9.46465856260031   -2.16393665700186   -1.19019610202301
C           9.36736392339661   -3.55051736840833   -1.14647268984333
N          10.42409296610400   -4.30113991886856   -1.36166285366966
C          11.60846419849602   -3.70486156824702   -1.61155454975896
N          12.64327721618776   -4.53890353620172   -1.84068736474726
H          13.56529912725041   -4.15752429211344   -1.94347554016458
H          12.50152717873336   -5.52303648696582   -1.71120334609198
N          11.85179269588562   -2.39789690775687   -1.66901303082788
C          10.76175335574535   -1.66083201027757   -1.46941963621780
N          10.65883078681098   -0.31632537433731   -1.45654267450853
N          11.64389732628489    0.58961180641332   -1.81377561412357
H           0.81354656362116    0.95900382499564    0.41418739701750
H           0.69726896373690   -0.57069687396220   -0.33769780131514
H           2.92116996363784    1.97437893660553    0.93607785811715
H           5.38467772923467    1.88747890211933    0.70071722448104
H           5.08294217633572   -1.93320567129035   -1.17144970256464
H           2.61805936031446   -1.85589786388338   -0.94291190846484
H           8.43948220997431   -4.06573695023508   -0.93808499568041
H          12.54706093507684    0.23669348649153   -1.50930841818194
H          11.42727560534106    1.48849194394152   -1.39218089546866
