24
         -38.130383836715          0.000741863212
H           1.18531825851684    0.02801895016831    0.34837741555845
C           2.25729431837019    0.00996198029285    0.21701312376557
C           3.05123643033423    0.93883170389345    0.87391702621000
C           4.41969293225753    0.92885050814044    0.69940995050999
C           5.01269282639282   -0.03404672653370   -0.12346196904967
C           4.20566180235079   -0.96879696400713   -0.78375225037127
C           2.83778039846160   -0.93818963813142   -0.61339291126281
N           6.38003445744310    0.04845255779952   -0.29233916093177
N           6.96312637028873   -0.99469063056218   -0.72610115032681
C           8.30012472484335   -0.87368495726176   -0.95941778935345
C           9.15647153249011    0.26245555171353   -0.90819445362953
C          10.38547741721091   -0.22612024405576   -1.25388471217066
N           8.99679993648597   -1.95500359826528   -1.31619802373482
N          10.23783932060550   -1.55460085744073   -1.48510719231596
C          11.25922583607900   -2.48490667044680   -1.86756519752993
H           2.59592248507546    1.67616428594298    1.51914253050665
H           5.05382241901252    1.64207352101249    1.20335526264108
H           4.68075376318260   -1.69286047955501   -1.42844090442726
H           2.21491755863575   -1.65592297386499   -1.12790855809886
H           8.87521454923146    1.26329150932612   -0.65763192563076
H          11.33862313644800    0.25460340674679   -1.35252542371135
H          10.79867349309427   -3.46735290351506   -1.94532511528834
H          12.05266879195470   -2.51221096159163   -1.11823323230512
H          11.69097724123450   -2.20786636980496   -2.83128533905331
