25
         -53.490816607465          0.000626194198
F           1.08636007979948    0.06715434216746    0.34815544088911
C           2.41538272527957    0.05634150551500    0.15135657202927
C           3.19607682546750    0.99735139633116    0.80550708352307
C           4.55898260545391    0.98443815704134    0.60073065723681
C           5.13658419466111    0.03286008987971   -0.25002081527118
C           4.32048280016467   -0.90733330356670   -0.90003428313359
C           2.95905694604942   -0.89569282511702   -0.70056951917192
N           6.50403295108152    0.09847153698179   -0.39018139436956
N           7.03954008700351   -0.79465003439092   -1.12859360302357
C           8.38903710787712   -0.71864031474546   -1.24438476244241
N           9.02925819376922   -1.59127171383500   -2.00845757499886
C           9.34168317241758    0.18233066468616   -0.64289529356179
C           9.39598541128732    1.27908626516322    0.21407775286080
N          10.55780636841454    1.82402048855478    0.51277775703207
C          11.66725255244163    1.31250805491816   -0.01291277380617
N          11.76906771265919    0.28755263319364   -0.83515264781084
C          10.59995463274531   -0.25721501224561   -1.13481455266985
N          10.30625803070610   -1.30653930177130   -1.93296553224327
F          11.18581449935364   -2.06390150695253   -2.63404080833816
H           2.72868617058732    1.71792232765881    1.45783901771467
H           5.19997556805926    1.69941186406299    1.09178327031122
H           4.78769121387754   -1.62789844269973   -1.55324735564598
H           2.31026913018198   -1.60623659505672   -1.18851369964614
H           8.51086204854900    1.71516274825852    0.65484396507911
H          12.59397897211265    1.79364697596832    0.26591309945724
