28
         -48.264837732714          0.000481115397
C          -1.13882207098214   -0.02574821507935    0.03640728279932
N          -0.33581912446328    1.06120702241324    0.05047330283259
C           0.88515979865307    0.60384968370277   -0.00041339522597
N           0.91497433681220   -0.74687732413982   -0.03756780669439
H           1.73116790503217   -1.33207888038901   -0.09982592380464
C          -0.38884869052541   -1.18490738577184   -0.01983582362913
C          -0.77835654468054   -2.57444167785801   -0.04808371689803
C           0.14748445899539   -3.60114274116730    0.17598456234322
C          -0.23628455955785   -4.92096288739625    0.12740196173670
C          -1.56916065424782   -5.26216731214279   -0.12916932898770
C          -2.50341135588989   -4.23745106366446   -0.34571605842379
C          -2.11099492201427   -2.92243679273027   -0.30845940159803
N          -1.86114309428352   -6.60332761370964   -0.21825811782886
N          -3.09461318605520   -6.91980556341372   -0.18042071081012
C          -3.36933756324043   -8.24522256556627   -0.34334774935989
C          -2.50561845609090   -9.34894932762739   -0.60677592771147
C          -3.34156909383630  -10.42660715584869   -0.67996638425180
N          -4.63449706926962   -8.65831794507569   -0.26924944256682
N          -4.59820248134956   -9.96023286120134   -0.47113498915050
H          -5.45605123739171  -10.49039243470717   -0.45845632496620
H          -2.20295978229853    0.08584066648794    0.08329207110006
H           1.76739250017631    1.21223072199675   -0.01124585185190
H           1.17809019949495   -3.36565706772181    0.40222297898327
H           0.47628590979182   -5.71233442812581    0.30319557712300
H          -3.52516541388879   -4.51460115075304   -0.55569725723418
H          -2.83127519689782   -2.14017737591634   -0.49128239119737
H          -1.44301041659569   -9.31139396926851   -0.71869340056695
H          -3.14975419539692  -11.46543435532620   -0.85982773416046
