41
         -74.697194301129          0.000339300514
C          -0.66244600037398   -0.12925748433217   -0.35112923364193
N           0.01233023101157    0.93719007936228    0.13021405850785
C           0.74730618493474    0.48306847703649    1.10854332712062
N           0.57318216603725   -0.84381148344048    1.29431972430368
H           1.03870075590604   -1.42409313974675    1.97189659637688
C          -0.33626049193011   -1.27225481782053    0.35538219812110
C          -0.79581087830327   -2.63370659410940    0.23023442339129
C          -0.51822330376690   -3.59709769575452    1.20867334487324
C          -0.97813060687163   -4.88639650811364    1.07959803356364
C          -1.72560350656217   -5.26530861016886   -0.04235733581885
C          -2.00278144925173   -4.30418871827825   -1.02898650203119
C          -1.54958106720926   -3.01669081011047   -0.88909265558518
N          -2.15466543700306   -6.56955812102836   -0.07069175972279
N          -2.78068006287264   -6.93893900487058   -1.11605580143125
C          -3.14468760693117   -8.22853672879891   -1.24791121202092
N          -2.51684793570261   -9.27828914919163   -0.72787764841387
C          -4.19476811660224   -8.66987324775850   -2.12469981579867
C          -5.19806362357571   -8.17198280736629   -2.94858716203708
N          -5.99108889976654   -8.99214100858227   -3.60172672896494
C          -5.82555253804055  -10.32099597236131   -3.45350250134033
N          -6.66946408326564  -11.10564125590079   -4.14354918153220
H          -6.58291876300326  -12.10195863862270   -4.06990352214389
H          -7.36354983000487  -10.67863186479549   -4.72774537954160
N          -4.91249484958543  -10.92708988319892   -2.69110625651130
C          -4.12586422305929  -10.07956555645131   -2.05006285215420
N          -3.09619087698178  -10.38655046023835   -1.21593558884156
C          -2.65870095572834  -11.65137201773447   -0.90813953923821
C          -1.63562180988392  -11.99512198333739   -0.07090292535874
C          -1.47566455412028  -13.39288789627350    0.01282893607742
C          -2.36944223255290  -14.07239816217934   -0.75091038132370
S          -3.44337843952449  -13.02770430733893   -1.60583407065184
H          -1.35098662516581   -0.01229697989840   -1.16302123151521
H           1.41159031355404    1.07837523434482    1.70265207416337
H           0.04852469718067   -3.33160455831291    2.08991080269489
H          -0.77029681277969   -5.63121980263210    1.83195075268933
H          -2.58450847905934   -4.60212145136653   -1.88815554878794
H          -1.76562171303513   -2.28385282598532   -1.65097669235537
H          -5.36804408821055   -7.11392102894992   -3.09455169828730
H          -1.04158457361539  -11.26749304873615    0.44895567083631
H          -0.72598831302073  -13.86787110680940    0.61950009724153
H          -2.46936160126245  -15.13282906014615   -0.86726681491181
