41
         -71.043631100245          0.000440170699
C          -0.91507494660443   -0.11318591550745   -0.69399865382958
C          -0.23490903029559    1.08638402274777   -0.41685551653257
C           0.93864477332260    0.88369911776261    0.23818388362566
S           1.23501259791646   -0.77878885199839    0.53268536020479
C          -0.25819716038175   -1.23227794827912   -0.24759448099090
C          -0.64221658105673   -2.61899631020928   -0.35828854456450
C           0.12689949084025   -3.62225268998587    0.24512428292251
C          -0.22481487323040   -4.94588448190524    0.13980152184773
C          -1.36215677918225   -5.32095549782036   -0.58796728703927
C          -2.14167498431678   -4.31983405772373   -1.18988846908821
C          -1.78759735309973   -2.99917956557799   -1.07444820050925
N          -1.64336944224889   -6.66381025079533   -0.64061015523750
N          -2.59496809474577   -7.00980556815085   -1.42650793826243
C          -2.87858398857878   -8.33231462007624   -1.46050238192955
N          -3.82040463450673   -8.76524411992074   -2.28613945957225
C          -2.31680546292791   -9.44570706199673   -0.72991428677891
C          -1.33225801672737   -9.59733241099075    0.24075335490815
C          -1.07569711377207  -10.87141946260152    0.69891616446818
C          -1.77741885186780  -11.97800336169505    0.21078472432520
C          -2.75937402809893  -11.85141036523796   -0.74893375921263
C          -3.02018758702768  -10.56816471462842   -1.21328151178389
N          -3.91253474187538  -10.08760368814474   -2.14934075106903
C          -4.82153761789554  -10.78221574909119   -2.91347480091618
C          -5.71038226850235  -10.31570000534594   -3.84457700612295
C          -6.38955342726966  -11.46122279617277   -4.32101092027578
C          -5.86836825893771  -12.52330953802504   -3.65156153427459
O          -4.90956586249743  -12.11963182000837   -2.78891904343631
H          -1.86166366416103   -0.14029470872870   -1.20201254933363
H          -0.60252409785771    2.05844554339153   -0.69369457578796
H           1.65297517088055    1.61123611788219    0.56886106783999
H           1.00963913690457   -3.34226489044665    0.80237405962727
H           0.37221834374589   -5.71662913344203    0.60237525113803
H          -3.02003541764272   -4.61993403038948   -1.74070359152699
H          -2.39584107646079   -2.24451276850089   -1.54869655985039
H          -0.79926510117983   -8.73607532281192    0.60893110847201
H          -0.31697505923074  -11.02629427746627    1.45159701538783
H          -1.54291561954858  -12.95871429994867    0.59739052148205
H          -3.29836294452868  -12.70681871176295   -1.12126770845720
H          -5.84231826120661   -9.29494888358149   -4.13229465489891
H          -7.16102737109381  -11.48573460381463   -5.06239933365832
H          -6.07539979505214  -13.57363231900422   -3.68751464130991
