34
         -57.382186760721          0.000723496133
C          -1.14613898741300   -0.12169451787488   -0.04576545828412
C          -0.39488633708857    1.06553227595676    0.02513853591464
C           0.93924193196536    0.83463351673491    0.14351523977573
S           1.30474266055087   -0.83979955571472    0.17798539574530
C          -0.38136666914157   -1.25894154925998    0.02297712171974
C          -0.79859330905224   -2.64045459687663   -0.01453165014605
C           0.11723221016718   -3.66902705346206    0.23998874701220
C          -0.26943559510143   -4.98692354879133    0.20863208130814
C          -1.59689835174228   -5.32901676611774   -0.08065356449946
C          -2.51850165929574   -4.30250531306443   -0.34384863367003
C          -2.12551461378860   -2.98794989519155   -0.30915504286502
N          -1.88615823077496   -6.67237810495235   -0.11417080506855
N          -3.11082985824642   -6.98123800975241   -0.28720279865455
C          -3.42724663763090   -8.28891262923118   -0.42996318990307
N          -2.60937787231837   -9.27203259612914   -0.79507805941085
C          -4.76920027257513   -8.79127754926869   -0.30596704349819
C          -6.00589713403687   -8.25280470352599    0.03688314759477
C          -7.09330948022916   -9.09758124117664    0.04658969635269
C          -6.96924708230317  -10.45651946813324   -0.26813018567792
C          -5.75634758401859  -11.01444971855801   -0.60572374105171
C          -4.65580828540278  -10.16387662009286   -0.62097318105981
N          -3.34113881858483  -10.37494348190880   -0.91182153925509
H          -2.90474297589488  -11.22848456623063   -1.22319671528945
H          -2.21728639296857   -0.12807578371299   -0.13387697427810
H          -0.82826047586107    2.04915110359919   -0.01110992003973
H           1.73596038906133    1.54817827886488    0.21507922897075
H           1.14282606578702   -3.41306987209092    0.46536715267700
H           0.43374099932428   -5.78092608877797    0.40549364272563
H          -3.53733887500717   -4.57387602084956   -0.57609339937553
H          -2.84587959537637   -2.21254666630414   -0.52060568582153
H          -6.09619411904961   -7.20607813343165    0.27994207164900
H          -8.06906596962099   -8.71148269193349    0.30156541738173
H          -7.85070814551290  -11.08006539562295   -0.24409940838443
H          -5.65997092881991  -12.06232303711885   -0.84546048259422
