30
         -51.903218363231          0.000872122459
N           1.16324197293363    0.05085842461003    0.44793077155607
C           2.48573104201249    0.01708590990448    0.08727759205821
C           3.21332732881745    1.20350386662728   -0.06439241419855
C           4.55150692935831    1.16682755448133   -0.37167536579272
C           5.21557112645745   -0.05685566448513   -0.53506765095194
C           4.48446512308295   -1.24648635162064   -0.37758316381062
C           3.14700388643557   -1.20762629218568   -0.07488121177153
N           6.54693101334506    0.01243982659419   -0.85739090229096
N           7.17262332622568   -1.10183723318458   -0.96216212761106
C           8.48715561290551   -1.01589463077244   -1.30017130715044
C           9.29213184148952   -2.13376094819813   -1.42379925037768
C           9.32101044756221    0.12740494185435   -1.59906455927418
C           9.09832112153791    1.50008555688846   -1.64791823933681
C          10.15225730787418    2.32512925332159   -1.98139428516923
C          11.42006857820957    1.81405790283814   -2.26649458863952
C          11.67285904739302    0.45823834125719   -2.22774533818375
C          10.61245310038425   -0.37031968138429   -1.89314546456442
N          10.53141491475789   -1.72552995656799   -1.77102843807011
F          11.58212733452970   -2.58672040791829   -1.97391575800915
H           0.66907899344415    0.91929827346177    0.33097627385352
H           0.62165402723697   -0.78697628944595    0.31641669198815
H           2.70755965850232    2.15084622145581    0.06177221074453
H           5.11464831668334    2.08001143049961   -0.49348173288025
H           4.99912172675472   -2.18605869639893   -0.50875699537573
H           2.58577842624145   -2.12512227731491    0.04049617218576
H           9.05642854687765   -3.16937288520887   -1.28489408034178
H           8.11727801892293    1.88812913882986   -1.42781801101878
H           9.99917545675995    3.39330798831904   -2.02528286359265
H          12.21865238291224    2.49419623746114   -2.52228214386017
H          12.64949339035161    0.05454044627533   -2.44693382011497
