42
         -70.438256677264          0.000374848431
C          -2.82056683038430    0.15643390193530   -0.39356899776506
C          -2.79794743549027    1.54829516421498   -0.59840323638259
C          -2.79560253159677    1.88417982625675   -1.91479298728098
S          -2.82376001522015    0.50390158611764   -2.93282862392785
C          -2.83697771741586   -0.56946046977302   -1.55761439742671
C          -2.87066765825059   -2.00115043713809   -1.73767039788684
C          -3.01578684764157   -2.55711114797567   -3.01559364716934
C          -3.08173523531318   -3.91640449840052   -3.19680038009134
C          -2.97964327942310   -4.78334245110793   -2.09992367023276
C          -2.82027080742015   -4.23282290145470   -0.81822198613971
C          -2.77156683572820   -2.87214487328931   -0.64353568077447
N          -3.15158746235252   -6.12164218353887   -2.33435372118043
N          -2.70307548730947   -6.93293957482003   -1.45295305236645
C          -3.01507145978409   -8.24189088315026   -1.61665778508617
C          -3.88594558097681   -8.84764498331296   -2.50746012347324
C          -2.49623826041697   -9.29413420780056   -0.78243290342622
C          -1.60274362203674   -9.31293788839015    0.28224951513801
C          -1.33266201909336  -10.52258361137586    0.88654155531700
C          -1.94321275435952  -11.70031989473167    0.45338854078326
C          -2.83040899418539  -11.70638405785975   -0.60452389460752
C          -3.09072791503403  -10.49412293940160   -1.22626975585441
N          -3.93552330916279  -10.18909698429972   -2.28167514430166
C          -4.72383051274131  -11.08086319963056   -2.98602222101738
C          -4.53547142803363  -12.38478868984185   -3.37429963593816
N          -5.61973739507184  -12.81885069476580   -4.06362294803674
C          -6.45221840698659  -11.82080235694652   -4.10489620089603
N          -5.96191581713952  -10.72844917463879   -3.46530264751465
H          -6.41094536602345   -9.83561559534832   -3.34235232721819
H          -2.83276094332013   -0.28675992286461    0.58545577798083
H          -2.78471700053056    2.26844791358062    0.20044230400179
H          -2.78049539157286    2.86119625441816   -2.35538309061020
H          -3.08783173259911   -1.89713729249853   -3.86858877238439
H          -3.19521632997252   -4.34008381232246   -4.18290804322408
H          -2.75507363597611   -4.90710311172119    0.02288098142779
H          -2.65068778727932   -2.47034010408873    0.35080361724489
H          -4.45306775093526   -8.38214177584236   -3.29101450852760
H          -1.14417145523880   -8.39624656379809    0.61698720914490
H          -0.64234069093638  -10.56499212876555    1.71573431220041
H          -1.71871497675536  -12.62749600847853    0.95886295612696
H          -3.31063451528616  -12.61690813842899   -0.92537411161338
H          -3.68768383661940  -13.01951964353662   -3.22176098557969
H          -7.40950296838257  -11.83775244518162   -4.58443089143739
