28
         -51.953451527835          0.000447046374
C          -1.11933618699928   -0.08449037803446   -0.02388449386241
C          -0.35976234882002    1.09588107393323    0.05919258804438
C           0.97179173322918    0.85345847018155    0.18886057169895
S           1.32468947842019   -0.82282961091441    0.21523732013797
C          -0.36378666945144   -1.22873729150858    0.04394499898756
C          -0.79102631214124   -2.60583174702897   -0.01122674407555
C           0.13915923817210   -3.64621593202717    0.11256849104673
C          -0.25436130879719   -4.96083614992313    0.04905867287031
C          -1.60489603851123   -5.28629915042692   -0.13309381213344
C          -2.54393180600876   -4.24943385318175   -0.25462059596746
C          -2.14211902697789   -2.93865787279622   -0.19617011675930
N          -1.90777843087046   -6.62380789587168   -0.21732151503022
N          -3.14760176070980   -6.92370201211928   -0.25780749030928
C          -3.41838580830043   -8.25296784339858   -0.38688379580419
C          -2.54603053771048   -9.37058856975525   -0.52091311395506
C          -3.37650688811299  -10.45552879428751   -0.62445930823546
N          -4.69292241041270   -8.65684764717323   -0.41079111822189
N          -4.61848824937039   -9.94187143390283   -0.54929330634371
F          -5.75811697010096  -10.68173266574298   -0.61179965022751
H          -2.18915029316943   -0.08096456483771   -0.12766956526428
H          -0.78469259603827    2.08308949233156    0.02249374302802
H           1.77307771090538    1.56069905313514    0.27106341185217
H           1.18223929814740   -3.40284645473307    0.25658082347214
H           0.46267332311030   -5.76142166149472    0.14414942313308
H          -3.58019847474666   -4.51333450281252   -0.40169190115526
H          -2.87678784471556   -2.15503196751516   -0.29692863590695
H          -1.47721025259812   -9.34292626964535   -0.53557017560939
H          -3.20060056742070  -11.50460382044982   -0.74059470540992
