28
         -57.304531743910          0.000517084796
F           1.16834267202525    0.22657292056207   -0.06903712893688
C           2.50913653699800    0.14842978588547   -0.09962694980755
C           3.24938601961657    1.00963570163534    0.69586413060531
C           4.62494863575684    0.92374836309902    0.66253110580894
C           5.25333465993619   -0.01723296182401   -0.16181386793436
C           4.47883946588523   -0.87293723316572   -0.95984390790936
C           3.10493882490673   -0.79239542046901   -0.92824959009783
N           6.63241235241128   -0.01486264132249   -0.13001909670757
N           7.22241144063754   -0.89441256521089   -0.81230678649325
C           8.55957480234553   -0.89953235859533   -0.96657931095070
N           9.29104466323802    0.15977381350520   -1.25738184918358
C           9.34713696330543   -2.10040663845989   -1.07373034472894
C           9.22649370266775   -3.47658060553254   -0.91248125259760
N          10.26026454126393   -4.26107289082082   -1.11303600216749
C          11.43836245798699   -3.71113394185621   -1.46408124128381
N          12.45844010060051   -4.55795967592112   -1.65743996563881
H          13.36112807644146   -4.19164469405486   -1.89816407552806
H          12.31330901489313   -5.53961854261781   -1.51118100275402
N          11.68622180629442   -2.40787948664777   -1.64245944766345
C          10.63235504948830   -1.64429143950853   -1.44270290274285
N          10.54484055401327   -0.27809017370755   -1.56264566164780
C          11.50864502034578    0.54086147712530   -1.95861350113871
N          12.35445493429144    1.23414785323886   -2.29552502442218
H           2.74228833787087    1.72667451441498    1.32182021736973
H           5.23990859127052    1.57479694617161    1.26312946919366
H           4.97975712975146   -1.59045425064257   -1.59173070145814
H           2.48660045429806   -1.43981830121631   -1.53034180034969
H           8.29909319145876   -3.95525755406378   -0.62886351083601
