31
         -47.471617866354          0.000336581039
H           1.22667180502999   -0.08917163081577    0.84462847748235
C           2.28739417203384   -0.08853271262396    0.64004821567923
C           3.08571741805643    0.93997613167929    1.11845522905681
C           4.43878931865775    0.95093766311679    0.85048164623880
C           5.01689707402070   -0.08471253023405    0.10894688122357
C           4.20329099115785   -1.11879087128552   -0.37166444116390
C           2.85047097328127   -1.11341415488213   -0.10662492692516
N           6.36414692410030    0.02608080200413   -0.16493580863597
N           6.95384521014359   -1.03823394547125   -0.55715836460943
C           8.26083308642246   -0.92182002968551   -0.89530376727845
C           9.01607877051773   -2.00551038736074   -1.31272013067660
C           9.14657217810838    0.21878933026646   -0.92902050192232
C           8.99598797814265    1.56825749706547   -0.63018050328473
C          10.08975463411497    2.39576189028342   -0.78022138102295
C          11.31914319476144    1.90389861082372   -1.22022059965233
C          11.49221237680446    0.56813223273813   -1.52331770050764
C          10.39537951431523   -0.26866760475024   -1.37274264983490
N          10.27972464935147   -1.62280819723576   -1.59708678699596
C          11.33896279374786   -2.47213441443149   -2.05906559157306
H           2.64482143553119    1.73873022440099    1.69754791752506
H           5.07421532219580    1.74313864862428    1.21633777001671
H           4.66010322909849   -1.90260618730284   -0.95737576916994
H           2.22490744208918   -1.91111816621596   -0.48213436951001
H           8.70284810328608   -3.02670213662295   -1.41803846288487
H           8.04275974405368    1.94055496918702   -0.29146951248348
H           9.99897982239172    3.44789064837836   -0.55366429466784
H          12.15216467804683    2.58321816360738   -1.32618453845657
H          12.44588109151909    0.19312645742592   -1.86385367501564
H          11.70073126309231   -2.13525275247301   -3.03348456597168
H          10.97196382415432   -3.49238438007926   -2.15155587243939
H          12.17431098177287   -2.45782316813072   -1.35500192254028
