32
         -62.163037154442          0.000633134665
F           1.15879118907773   -0.25637261792718    0.69950144609757
C           2.49008125121261   -0.24576233530664    0.50201105920200
C           3.23091185555058    0.82001225247415    0.98961395795178
C           4.59275032020180    0.83277430241557    0.77693718290093
C           5.21060640402159   -0.22072852124126    0.09126235122818
C           4.43500110903614   -1.28743771878621   -0.38901522309109
C           3.07338073192199   -1.29936650689382   -0.18662013601407
N           6.56825965142223   -0.10714977538995   -0.10447246249416
N           7.16229909067609   -1.14067374135061   -0.56377832396212
C           8.47586648703771   -0.98641566915971   -0.84712051371295
N           9.20759314187553   -2.03889942779244   -1.17788450476055
C           9.28606433041229    0.20476083030527   -0.92250152921344
C           9.18916620177619    1.57928229519724   -0.73870222247874
N          10.24732195018330    2.34404146034052   -0.93125772659021
C          11.38688153071485    1.77594653948180   -1.31030311482333
N          11.61822366691146    0.49621415980117   -1.53070379200690
C          10.55576571085649   -0.27285769075341   -1.32810061229727
N          10.44282876723584   -1.62901843485069   -1.45995077734174
C          11.42065172234882   -2.52530665515134   -1.82950042564587
C          12.72299479206693   -2.26084927168028   -2.14912819516962
C          13.42364925721774   -3.43750991707743   -2.48060300476122
C          12.65014874552867   -4.55308094031825   -2.40629810019254
S          11.03389160637674   -4.20967900206870   -1.92833379163373
H           2.73447568887770    1.61712517330109    1.51958051470286
H           5.20343923801254    1.64340527890213    1.14211239574581
H           4.93098766258277   -2.08434388962585   -0.92067901428868
H           2.45539567923107   -2.10496842165953   -0.55055210803369
H           8.27099163220507    2.06376325881196   -0.43726156837811
H          12.22485306857516    2.44312295324695   -1.45959274625843
H          13.13932633719774   -1.27088215568314   -2.14273949295361
H          14.46069298158437   -3.44973404413130   -2.76274489320384
H          12.93196819806863   -5.56779176742942   -2.60466462852146
