33
         -63.276615588794          0.000759912797
C          -1.15995065021604   -0.02451065980928   -0.22037664657350
C          -0.26430426870065    1.03364203981546    0.02575752202197
C           0.90667222099998    0.44928384534061    0.41161934242464
O           0.79520711159577   -0.88238438213903    0.41858534616504
C          -0.46779328192648   -1.18972586359926    0.03359794647774
C          -0.85952275898587   -2.57404624637413   -0.05409283362293
C           0.07216110332545   -3.58681111097887    0.21549509708349
C          -0.28391673785650   -4.90902729191722    0.11673956227712
C          -1.59181603635385   -5.26437958693829   -0.24864684653028
C          -2.53121419175188   -4.24977321303457   -0.50998694579713
C          -2.16776562706766   -2.93122588911550   -0.41574919154305
N          -1.85320363743277   -6.60341644970220   -0.34543725252141
N          -3.05697340089097   -6.93321205519565   -0.62987558295466
C          -3.28312193572447   -8.26951033966349   -0.69997867810633
N          -4.45411790893986   -8.71135904663094   -1.10207790408871
C          -2.42130145976163   -9.38300233109546   -0.35747049365192
C          -1.13750513681731   -9.64173047065144    0.10819892066892
N          -0.73937912408461  -10.88964563196686    0.27570299590107
C          -1.58370184369507  -11.87527837798494    0.00162140563424
N          -2.82625875803336  -11.77316452366804   -0.43521125954335
C          -3.21667067407870  -10.52255295252364   -0.60780339945369
N          -4.43438069096787  -10.06182890765390   -1.05580523863037
C          -5.47894641111601  -10.80303101917516   -1.41106802681394
N          -6.36884511678417  -11.45425186410034   -1.71260087659770
H          -2.17590763958244    0.06547945624853   -0.54469585419804
H          -0.46039832888377    2.08158653426982   -0.07025059846690
H           1.85336013934372    0.86512483344094    0.69563033274163
H           1.07686878653105   -3.31110790939778    0.49709904744655
H           0.42828646095606   -5.69417094917468    0.31838428227496
H          -3.53159401821716   -4.54106581993866   -0.79161754047516
H          -2.89161424336749   -2.15825431856429   -0.62102396803255
H          -0.43241767878638   -8.85659121300425    0.34120677132141
H          -1.21592426273064  -12.88055828511771    0.15643056516235
