37
         -60.532833131909          0.000830467663
C          -0.77063318318179   -0.13232645156692   -0.41795854249915
C          -0.12947595891564    1.05547217966225   -0.01932898233840
C           0.78241890621633    0.85327973287522    0.96676279038233
S           0.87776902684946   -0.79722088158769    1.42754454735579
C          -0.34532733514878   -1.24269015846693    0.26569245582108
C          -0.76769739948180   -2.61628645019650    0.12810991739005
C          -0.14309777770994   -3.63317090900083    0.86214864519752
C          -0.51802341793976   -4.94621938942594    0.72246028244872
C          -1.56186570957489   -5.29780007556104   -0.14516796245900
C          -2.19749801352189   -4.28212469396936   -0.87633730833430
C          -1.80385985742068   -2.97320910960902   -0.74530264685383
N          -1.82089937260853   -6.62866058271740   -0.32432799673020
N          -2.98982288833380   -6.96176452537846   -0.72074180175897
C          -3.17991941654107   -8.26189479101960   -1.04039562716322
C          -4.42501676482336   -8.76442728788825   -1.39905988804290
C          -2.25965819707830   -9.36880928575988   -1.13574982908924
C          -0.89074240513466   -9.50793715242249   -0.93126012309562
C          -0.32362068825263  -10.74932439255057   -1.13015555918445
C          -1.09061024233732  -11.84755209630378   -1.52456974896235
C          -2.44931621457442  -11.73605355168670   -1.73700984044152
C          -3.02241079371722  -10.48717012001898   -1.53963978046239
N          -4.32577117168739  -10.07503461154650   -1.69395881616854
N          -5.37791491701055  -10.92944907233759   -2.01740920003026
H          -1.51715694053626   -0.15832515845421   -1.19062083611950
H          -0.33886537674697    2.01911721563193   -0.44916580323139
H           1.41075216268000    1.57126525396288    1.45523631850590
H           0.65553876605392   -3.37244664771255    1.54239813239959
H          -0.03247672014413   -5.72470104504223    1.29086786303952
H          -2.98993743156946   -4.56121822138695   -1.55499294372220
H          -2.30582816947266   -2.21051769032757   -1.32029383284529
H          -5.36297405299822   -8.24450832051151   -1.44419575621454
H          -0.30385608112302   -8.65684426342578   -0.62569943583369
H           0.73716158897901  -10.88164006519835   -0.97725164876653
H          -0.60947115419452  -12.80401872331108   -1.66537382377662
H          -3.04358874079581  -12.58730629903748   -2.03279416917858
H          -5.16276870833970  -11.44580493740315   -2.86801330291683
H          -6.22722534986363  -10.38866742130578   -2.14987574632127
