34
         -62.168156836843          0.000244581136
C          -1.15006927490816   -0.02101252921427   -0.27613330375755
C          -0.26799714476951    1.04978603133893   -0.02692171581277
C           0.89478050912762    0.48313658933606    0.40250868838687
O           0.79109081453846   -0.85064668998432    0.43409958940020
C          -0.45844469107178   -1.17431179663045    0.02068488350622
C          -0.84111337727786   -2.56532753827554   -0.04244688073370
C           0.07991280353325   -3.56414127258567    0.29803285305545
C          -0.27211579372936   -4.89099716518412    0.23943465914332
C          -1.56241965170360   -5.26502948882861   -0.16149172416400
C          -2.48842535725459   -4.26403469600825   -0.50193450744068
C          -2.13124394609925   -2.94056313364794   -0.44295591164587
N          -1.82476934741383   -6.61148372988704   -0.19058380368208
N          -3.00951075870521   -6.95062300065826   -0.54848420872394
C          -3.24613643902754   -8.28032287023463   -0.56765481256118
N          -4.44411146542505   -8.73279895879654   -0.93708341177751
C          -2.39411059865347   -9.39602546012732   -0.25250679110560
C          -1.09603165580734   -9.68446623333392    0.15637281081817
N          -0.71501650493744  -10.93872036982849    0.30521449189158
C          -1.58682325736241  -11.91248567873019    0.05275399855860
N          -2.83929926127646  -11.79454754281048   -0.33703808592132
C          -3.22233039648185  -10.52744420202820   -0.47179849650554
N          -4.42471143666601  -10.05128825237610   -0.87304108363651
N          -5.56290041446013  -10.79065847662571   -1.10620962757186
H          -2.15779580856536    0.05550611046825   -0.62844017872208
H          -0.46929579542713    2.09411428744848   -0.14973815581542
H           1.83084030325685    0.91043825501417    0.70392763279734
H           1.07301216246898   -3.27589569579714    0.60740088887020
H           0.43249751827666   -5.66569360015236    0.49992391195742
H          -3.47798737528033   -4.56793858630504   -0.80745217546106
H          -2.84856700997590   -2.17845760714497   -0.70545443457833
H          -0.36528778553834   -8.91414425877600    0.35848557776306
H          -1.22021491044305  -12.92202371555467    0.18004037378482
H          -5.31927136558240  -11.68570202914023   -1.51981893286711
H          -6.20240328735774  -10.25317669493931   -1.68311211744989
