42
         -70.425222257734          0.000829132658
C          -0.84995497640608   -0.17887714187001    0.27326737565930
C          -0.52782003362017    0.91876285416338    1.02910384180745
C          -0.49718385385387    0.43955139550927    2.34961974100892
N          -0.77469737232749   -0.84339560362413    2.39104716156321
N          -0.99240071264228   -1.22401549673732    1.12802379354683
C          -1.32211267029284   -2.54846788944822    0.84075610677533
C          -1.27364948142199   -3.48800762056364    1.87317819869521
C          -1.58856040790853   -4.80336814375960    1.62983229043124
C          -1.98740153126931   -5.21296047729800    0.35072196430162
C          -2.03084592334546   -4.26446707733297   -0.68070710199988
C          -1.69778877336525   -2.95107577621243   -0.44094880789881
N          -2.23718786032446   -6.55048195879447    0.16716505984229
N          -2.96837276314844   -6.87013668190885   -0.83098514384520
C          -3.14892765204597   -8.19474836736760   -1.05554014002249
C          -3.98189315289589   -8.66585952675479   -2.05001766635309
C          -2.59448427538223   -9.36236253361382   -0.40521515001429
C          -1.71767453993945   -9.53611345383159    0.65862474772746
C          -1.41881854121549  -10.82376511606499    1.05505736089024
C          -1.98961077665628  -11.92553014495991    0.42030879000884
C          -2.85904575655081  -11.77515928177577   -0.64296622737365
C          -3.14249567610710  -10.48417886528800   -1.06167681879285
N          -3.97738451658851  -10.02620697646622   -2.07352240723037
C          -4.71636413982211  -10.79766447285573   -2.94841593333660
C          -4.38837138736169  -11.99194415447165   -3.52182437806559
C          -5.40858841704925  -12.48541459988011   -4.36340133234125
C          -6.48646678092648  -11.66602769758243   -4.42651324807944
S          -6.29912250083436  -10.26428469816876   -3.44802103525480
H          -0.97058790396096   -0.27552080419793   -0.78540873378662
H          -0.34122440897053    1.91664222531463    0.68949445805111
H          -0.28646192169650    0.97761163304564    3.25233862887771
H          -0.98223912621906   -3.15244705827201    2.85543463216538
H          -1.55749625662825   -5.53457460240262    2.42249561590329
H          -2.32220820330336   -4.59195293870137   -1.66726084204303
H          -1.74119152582841   -2.23941388965939   -1.25083476508845
H          -4.57406870505719   -8.10280305749569   -2.74564199510699
H          -1.29739363669332   -8.67580297785647    1.15350617958370
H          -0.74033837590181  -10.98637265420670    1.87908886300949
H          -1.75075888152978  -12.91938022766771    0.76856410134970
H          -3.31215683163669  -12.63492218071176   -1.11072937002358
H          -3.44338094892355  -12.48193666066322   -3.37966460811808
H          -5.33177491497130  -13.41028694541480   -4.90655629722221
H          -7.38751388537693  -11.78980035415138   -4.99206690919953
