41
         -70.699956081016          0.000612616512
C          -0.96631129514856   -0.14450691793828   -0.78978794081364
C          -0.30018011813239    1.06466388732334   -0.52095782751744
C           0.87501670784988    0.88021323603697    0.13655238519857
S           1.18983807910715   -0.77619031315188    0.44491041218362
C          -0.29705389890559   -1.25265614921610   -0.33405086260505
C          -0.66649575436994   -2.64399491391484   -0.43189185998776
C           0.10725579871361   -3.63272336149577    0.18953289096794
C          -0.23256030166073   -4.96035641513416    0.09892016302425
C          -1.36260136212141   -5.35469882092881   -0.63031964870259
C          -2.14607338393626   -4.36809044831290   -1.25123958606815
C          -1.80336512880133   -3.04322303124061   -1.15142172276918
N          -1.62899481455120   -6.70035399476615   -0.66556878944521
N          -2.58629647838150   -7.06972655017307   -1.43494421405437
C          -2.85109502975558   -8.39623323204481   -1.44491806878297
N          -3.79559369492409   -8.85498791272779   -2.25434837907194
C          -2.27543341972667   -9.49133893783959   -0.70201185440016
C          -1.28030994294817   -9.60967059652855    0.26294975466569
C          -1.00696157508852  -10.86866041291560    0.74951380313339
C          -1.70440067974072  -11.99257926486789    0.29469460376943
C          -2.69430537150667  -11.89834860677516   -0.65959920284598
C          -2.97332346810022  -10.63085340418126   -1.15749554123361
N          -3.87445951496579  -10.17841920424702   -2.09376855893952
C          -4.79199545717066  -10.86829180021756   -2.85683404580011
C          -5.14780784522147  -12.18978700185862   -3.00013922613932
N          -6.13433828842135  -12.29222528913249   -3.92344978536521
C          -6.38091892416925  -11.08139031615939   -4.33774454306493
N          -5.59162690332989  -10.17108190039518   -3.72127362056540
H          -5.54256292001776   -9.16983178061998   -3.82879032066442
H          -1.91241081879845   -0.18597584103695   -1.29813546927651
H          -0.67863046831363    2.03057224054469   -0.80494712507512
H           1.58038544915724    1.61857648728968    0.46250797102506
H           0.98344675198860   -3.33831587241474    0.74961620839005
H           0.36689284772675   -5.72020173797495    0.57622020096288
H          -3.01862121231683   -4.68118999298939   -1.80426510175991
H          -2.41385152437786   -2.29980297170680   -1.64044646736503
H          -0.75361174686244   -8.73355257805235    0.60389729895074
H          -0.24027261184178  -10.99881128293241    1.49855625852491
H          -1.45990038841860  -12.96116230476667    0.70458000333408
H          -3.22543627845937  -12.77133066372174   -0.99873451568645
H          -4.76933157285312  -13.06310949172584   -2.51320562116797
H          -7.11436344120425  -10.82446253708828   -5.07430205496119
