35
         -62.390423863709          0.000744976313
N           1.46959118346310   -0.28995430421549    1.08882665220006
C           2.60395680851991   -0.26708858114729    0.91756603383879
C           3.99885296746499   -0.23949415695345    0.70673658804329
C           4.78966220781242    0.69474256281458    1.38525957662789
C           6.14656691885490    0.72967353697408    1.16938402456887
C           6.74650069165030   -0.18412781597883    0.29017043934309
C           5.94633782597669   -1.11862553924453   -0.38707443255489
C           4.58736315594785   -1.14342566254949   -0.18404278643811
N           8.08662954561871   -0.03964200857615    0.04801996318905
N           8.73132313268844   -1.06956497618230   -0.33853980524363
C          10.01663844075494   -0.87165577135186   -0.70747035890318
N          10.76375047792220   -1.92709862164185   -1.00752362632926
C          10.78867821617879    0.33381396879280   -0.88228927358506
C          10.53771593441251    1.69393490976281   -0.73014553540168
C          11.56630946984397    2.56799141889608   -1.00363085321196
C          12.82022702684602    2.11008330187253   -1.42163556029197
C          13.08904833008437    0.76789717657845   -1.58310440557755
C          12.05550373385741   -0.12025022571520   -1.30919624184453
N          11.97088144321211   -1.49398490485039   -1.36187323883018
C          12.91874525520843   -2.43215820319121   -1.71140475321459
C          14.22514286363783   -2.38677028507280   -2.14307136613459
N          14.67630883749779   -3.64763916835475   -2.34188934392591
C          13.68907141571239   -4.44602571497105   -2.04590823465570
N          12.59079085877761   -3.75988931985404   -1.65480897784917
H          11.68314517301794   -4.09384225850334   -1.36957002708467
H           4.32279182228014    1.38681608089429    2.07066676493491
H           6.77295047957316    1.43935012821692    1.68726118969344
H           6.42494642707643   -1.80008328125688   -1.07431311007566
H           3.96582276072335   -1.85927807227356   -0.70262198433745
H           9.56687003924642    2.03331393762091   -0.40741274731739
H          11.40867544024434    3.63045263738534   -0.89519562536824
H          13.59856913553801    2.83015088172594   -1.62458766066522
H          14.05826386057450    0.42958898917360   -1.90727163207076
H          14.86354908196847   -1.54858962512470   -2.32456388593730
H          13.72940903781419   -5.51456103369924   -2.10088576559021
