37
         -61.385973161885          0.000403476534
C          -0.72297257744721   -0.07658759788567   -0.51785036360716
C          -0.11504078817724    1.00963881461798    0.14490012676010
C           0.49814437894908    0.48195413802188    1.24102273994055
O           0.31210787087473   -0.84283432859410    1.29887302022720
C          -0.43567729666377   -1.19853553778879    0.22585507203726
C          -0.79393378830528   -2.58707701397695    0.04598593979975
C          -0.36823933866523   -3.54847308863254    0.97017104514355
C          -0.71547245153529   -4.86977830504041    0.81748928552443
C          -1.49909196363721   -5.27554579949940   -0.27025590190918
C          -1.92203940795460   -4.31344728908617   -1.20161253707986
C          -1.57459644269868   -2.99481862378971   -1.04377422517141
N          -1.82325813215123   -6.61130310874509   -0.32848993569254
N          -2.48443876468718   -6.98421075470981   -1.36032227239345
C          -2.82843015052072   -8.29222421952404   -1.39955764363417
N          -3.52994520393258   -8.74352901359724   -2.43431516522804
C          -2.57575818511288   -9.37348777253599   -0.47839316368143
C          -1.91606385924188   -9.51852455138214    0.73834489727886
C          -1.90351739510215  -10.76953218806238    1.31472539804332
C          -2.52989894892488  -11.86466871335944    0.70759569618433
C          -3.18762946086065  -11.74676874603760   -0.49665223027442
C          -3.20147268941041  -10.48543870735543   -1.08403302164784
N          -3.75076977054716  -10.03446110072179   -2.25067996613437
C          -4.49800685373544  -10.79139127749180   -3.20992543951381
H          -1.29403526515533   -0.02926510499452   -1.42181805466111
H          -0.13212720264215    2.03843086676352   -0.15146222879874
H           1.07551177986425    0.93130691393217    2.02486383720819
H           0.23537490955491   -3.23629550943069    1.80897228723785
H          -0.39124609097348   -5.61445360979912    1.52824941559257
H          -2.52691690260226   -4.64144876682740   -2.03325006043714
H          -1.90645795468156   -2.26235356918065   -1.76345974536357
H          -1.43778079392492   -8.66961956379338    1.19890193406047
H          -1.40068065647657  -10.91791691762031    2.25892859035247
H          -2.49413290025518  -12.82564316409590    1.19947178581936
H          -3.66975267015351  -12.59246522558596   -0.96283274806183
H          -3.91165293204789  -11.64148160629115   -3.56496171917392
H          -4.72865722246881  -10.13216802100046   -4.04416151610264
H          -5.42762487855030  -11.15990193689968   -2.76935313264326
