35
         -65.906045145701          0.000609645172
C          -1.02995100395832   -0.16510581114145   -0.43082607395557
C          -0.31307170077931    1.03276966662783   -0.27043480691326
C           0.90221376432886    0.84198740475851    0.31074935716022
S           1.19411304632137   -0.80485468306234    0.67591615638839
C          -0.35885875492968   -1.27127861113672    0.03163030366618
C          -0.77655799275659   -2.65111328354701    0.03682756114736
C           0.02085426235248   -3.63561256705856    0.63744111774167
C          -0.36781343884680   -4.95246923264180    0.65025465912527
C          -1.58093815950280   -5.33684423824899    0.06191226839028
C          -2.38185469397448   -4.35772111873444   -0.54960196994642
C          -1.98555352231358   -3.04439774027369   -0.55992270517146
N          -1.87411561391834   -6.67624335494489    0.09750790799693
N          -3.02214348111300   -7.03196335825336   -0.28782171309931
C          -3.35278787913361   -8.32363748466928   -0.46008260656831
N          -2.61745640349170   -9.21014733470319   -1.10514774924706
C          -4.66283289664494   -8.85887034431047   -0.18777113943218
C          -5.85534012388110   -8.50092405679479    0.42977940235443
N          -6.86202527112440   -9.34503064461546    0.47088198579313
C          -6.71343854079822  -10.56211441178700   -0.08422688006783
N          -7.77750528754266  -11.37712596412621   -0.02979162759973
H          -7.69398404774300  -12.31230983832469   -0.38367838284207
H          -8.59513067352673  -11.07502208726374    0.46676295346964
N          -5.61772766115871  -11.03252866263291   -0.69153319956871
C          -4.62679839778449  -10.16524671767555   -0.72458797535529
N          -3.38334254563195  -10.32661578572475   -1.28466454428499
C          -2.94708537090206  -11.38826092363903   -1.94531171380524
N          -2.58026901717112  -12.31720905286921   -2.50498471587682
H          -2.01103981740990   -0.20090365275342   -0.86832486355934
H          -0.68351295227459    1.99551889624313   -0.57407154324786
H           1.64910106453011    1.57354760907652    0.54771536464190
H           0.95557275098266   -3.34582470395010    1.09545001034938
H           0.24340672177991   -5.71208797993741    1.11162737905526
H          -3.30859407839231   -4.66291217901168   -1.01254954341910
H          -2.61038365557028   -2.30639671059697   -1.03829141505939
H          -6.01093862802200   -7.53461104227603    0.89008874173957
