29
         -52.335835261163          0.000412820522
C           2.03107674007936   -0.41653755628134   -1.12775696747619
O           2.91645738502238    0.02220501419491   -0.12298097771193
C           3.36519007651797   -0.86411510120848    0.79290285256972
C           4.24368722259025   -0.35061152856753    1.75690301921699
C           4.75537904587855   -1.16257253150172    2.73683675007825
C           4.41186150317873   -2.52220833850294    2.78262772006749
C           3.53597659619200   -3.03213392628145    1.81403911322385
C           3.01553985093406   -2.21648322379952    0.83541989605542
N           4.97422791384737   -3.25595224261451    3.79768318461068
N           4.67570703392585   -4.48643518526324    3.85316620707707
C           5.28696203503582   -5.29424231391430    4.74511738654458
N           6.56228422100945   -5.23381166340491    5.10390027507703
C           4.68511764580851   -6.48176658654137    5.28933628992952
C           3.46854310004541   -7.14761255516379    5.32046056665239
N           3.35398397941239   -8.28345719711326    5.98647031678783
C           4.41688470940910   -8.75758374850862    6.62740075311736
N           5.62526153526935   -8.23413984311017    6.69254916767297
C           5.74174633640672   -7.09638558767462    6.01640365847462
N           6.82876378523898   -6.31451930672401    5.85498407004354
H           7.76525833919035   -6.47586368066740    6.18974136200292
H           1.82345721802636    0.46013961889271   -1.73898443463027
H           1.09496174418681   -0.79025563474052   -0.70168397217045
H           2.48498202400724   -1.19275714826878   -1.75124616787852
H           4.49992198691986    0.69564423897188    1.70325342511212
H           5.43258462767542   -0.77839229003258    3.48292380801539
H           3.27193119143126   -4.07816203864651    1.85622022677623
H           2.33811031390243   -2.63420203107473    0.10681334325219
H           2.58538287796339   -6.78630376970138    4.81076348067305
H           4.27202896089438   -9.68699384275168    7.16170564683628
