42
         -71.613292618679          0.000327161790
C          -2.77098861509202    0.19963687505684   -0.29305425125837
C          -2.61673436778188    1.54108026874606   -0.70118914558953
C          -2.38437740390750    1.49880757756854   -2.04245630294083
O          -2.38626593021391    0.23442487061844   -2.48613324443782
C          -2.62058788558598   -0.57216981652547   -1.42235990235225
C          -2.67664128105256   -2.00263695183786   -1.62064604044273
C          -2.59719701211668   -2.53993620435168   -2.91194249066291
C          -2.67164898005905   -3.89625622697701   -3.11567075530887
C          -2.79776138619561   -4.77106297657330   -2.02726091226751
C          -2.86914718054111   -4.23410520177043   -0.73148247716298
C          -2.81763914537900   -2.87579837152236   -0.53548202237374
N          -2.95974845058595   -6.10334185164416   -2.29750696947790
N          -2.63012821722020   -6.93573852228709   -1.38809482731828
C          -2.96082819504666   -8.23489139777310   -1.58823898077746
C          -3.87256896502367   -8.79689325031050   -2.46337556735632
C          -2.43829212690256   -9.31922147705495   -0.79704735306671
C          -1.49809967263301   -9.37829172234335    0.22374997420083
C          -1.20960990336289  -10.60885448696765    0.77643300022457
C          -1.84054633419118  -11.76664731359643    0.32369281013023
C          -2.77628996622453  -11.73164230935411   -0.69223986985475
C          -3.07015636448708  -10.49648317934082   -1.25126190763120
N          -3.95481354190715  -10.14415275705610   -2.26361335774662
C          -4.81794126436557  -10.97067835893345   -2.95157507637540
C          -5.82314479190331  -10.66533465464992   -3.83223955485878
C          -6.37099486487104  -11.90705581074070   -4.23317908386138
C          -5.66755387016783  -12.86479477178527   -3.57599981286854
O          -4.72006326581066  -12.30462257257972   -2.79384324633957
H          -2.97248602443374   -0.14197157019241    0.70108560946475
H          -2.67171876149804    2.41413814970679   -0.08359234250612
H          -2.20766116032529    2.27183962224119   -2.76413924601971
H          -2.48639947438668   -1.86919589160521   -3.75060742091129
H          -2.61152381778813   -4.31247790819532   -4.10971885843060
H          -2.98330315257862   -4.91578032874517    0.09849187222107
H          -2.87950623972849   -2.47579841015488    0.46496955810088
H          -4.47948152931389   -8.29773014151257   -3.19195973487197
H          -1.01650708747894   -8.47592350051759    0.56538105180533
H          -0.48389822366418  -10.68285418414447    1.57264416691289
H          -1.59145720857487  -12.71492967241936    0.77603015937327
H          -3.25435123774453  -12.63446109125942   -1.03424937268836
H          -6.13926153156502   -9.69434647964184   -4.14968824379901
H          -7.18002454086812  -12.05664161500129   -4.91757213067727
H          -5.73187102742425  -13.93375638457359   -3.56960770019946
