37
         -61.038542506370          0.000530655281
C          -0.92101962713072   -0.03295815874671   -0.32518665559728
N          -0.30772748188463    1.05249378156416    0.19769700479503
C           0.56684585584538    0.59236275984843    1.04943907924749
N           0.55806252637316   -0.75861697163580    1.09884222294326
H           1.12337711697742   -1.34404429704108    1.69057771799896
C          -0.40475064689304   -1.19330869664797    0.21818046132513
C          -0.72317573320509   -2.58210528520793   -0.01400746925138
C           0.12142469643839   -3.61092750687189    0.42077494293286
C          -0.19877341947883   -4.92940451534880    0.19587891948008
C          -1.38882184888780   -5.26923971140417   -0.45845778919578
C          -2.23238050610914   -4.24121970521849   -0.90857617475109
C          -1.90063286502106   -2.92692020030987   -0.69176291507709
N          -1.62355660182879   -6.60885273062147   -0.65752353321484
N          -2.80919235193124   -6.92620215399185   -1.01954386800541
C          -3.02623907721673   -8.24063233437513   -1.25735004743752
N          -4.25165207449079   -8.64035495965818   -1.58229855385190
C          -2.13908967270207   -9.37787981780253   -1.22663312951301
C          -0.78927066218980   -9.58946807181625   -0.96140511233152
C          -0.31653622084642  -10.88110560930667   -1.03631063897818
C          -1.15428929870971  -11.95256076684840   -1.36901364609843
C          -2.49229907313200  -11.76869045536824   -1.63812486570859
C          -2.97496476486684  -10.46582945028589   -1.56222680094613
N          -4.22383512818914   -9.94953483755113   -1.76196677033959
C          -5.41385511135683  -10.66665222135664   -2.11022407576667
H          -1.68245424743026    0.08052686076002   -1.06973831044946
H           1.22049403538605    1.19830815033848    1.64467728143603
H           1.04924804861321   -3.37745061917514    0.92440733460918
H           0.45148737661751   -5.72226736628161    0.53340972370107
H          -3.13902780290164   -4.51480906138088   -1.42639764294379
H          -2.55768574807339   -2.14184293135949   -1.03330605983407
H          -0.15036998268201   -8.75925365211624   -0.70757269046068
H           0.72546000083132  -11.08136853654781   -0.83491546089101
H          -0.73662522993721  -12.94760707306544   -1.41483827627090
H          -3.13648692548577  -12.59548762418222   -1.89561022821077
H          -5.27629507467503  -11.20069069715682   -3.05319754965515
H          -6.21833817691676   -9.94193061801781   -2.21488421970009
H          -5.67044430291297  -11.38577491581084   -1.32851220398686
