36
         -64.800003744539          0.000837300818
C          -0.55233242082606    1.14919143821026    0.58599473109765
C           0.74940957458142    1.03846147186030    0.35060868299338
S           1.52720408539307   -0.29179953481874   -0.51395945434194
C           0.07362813990871   -1.24364310363156   -0.83342635515981
C          -1.15976402762652   -0.91519322007362   -0.46859657161069
N          -1.53731623550406    0.23806863324961    0.21390261582957
C          -2.87031923810382    0.47709744699957    0.51753409362604
C          -3.74155366583538   -0.58167840164468    0.81424714529521
C          -5.06153986172067   -0.34258346555825    1.10432058427662
C          -5.56924454283686    0.96495293712843    1.11696666480113
C          -4.69535737210100    2.02551281214639    0.81828678465377
C          -3.37765836894455    1.78604107800240    0.52585429972050
N          -6.90680490716308    1.10369091362758    1.36452135170492
N          -7.33531966660139    2.28704972687631    1.56264825045795
C          -8.66353745164655    2.51158134455489    1.62977661028359
N          -9.59983801263880    1.86271120227610    0.94796929025446
C          -9.24832390849313    3.62833634883651    2.31962554899777
C          -8.89443697263161    4.66429030820305    3.17367523174487
N          -9.80213148169408    5.51534843098701    3.60098055553679
C         -11.07833148440767    5.35557097129404    3.20309506062914
N         -11.95145122137009    6.28779504162596    3.63866331930582
H         -12.93151812533597    6.13125597944938    3.49034880847705
H         -11.64206896050752    6.92943105096802    4.34538123623448
N         -11.55785445469516    4.39794887624239    2.40869448424210
C         -10.62518043349223    3.55764244768777    1.98240235747444
N         -10.76654683521551    2.49650977989063    1.16028785619021
H         -11.59934644162062    2.18987017935254    0.68472364181351
H          -0.91211232803358    1.98816335267580    1.16212173922332
H           1.44714517763120    1.77719306212597    0.70196441516777
H           0.27416721140466   -2.14451631802824   -1.38486440925491
H          -1.97951561217488   -1.55618718001148   -0.75415023115596
H          -3.36715187775071   -1.59385870251006    0.84859439661311
H          -5.73015151803785   -1.15388905593632    1.34525228121667
H          -5.09303092237125    3.02900532606375    0.80308060776327
H          -2.73543642810685    2.61262144723158    0.25914598211410
H          -7.88150941143086    4.82096737464730    3.51898839378444
