37
         -61.012733035578          0.000710792621
C          -0.85071285972149   -0.04790036790673   -0.37675617834406
N          -0.17444822117830    1.04094002237073    0.05531150879011
C           0.73110014197442    0.59287117315704    0.88027576261909
N           0.67662096599414   -0.75254111465425    1.00421683329872
H           1.26361339790596   -1.32758139605870    1.58453432516337
C          -0.34540943511352   -1.19756547544925    0.19856405658557
C          -0.72126688173723   -2.58421163786693    0.05376183417865
C           0.01524488501856   -3.61494404142955    0.65071975129520
C          -0.34658677242970   -4.93108033034249    0.48765112804692
C          -1.47805828781343   -5.27095919253032   -0.26418148988849
C          -2.22042979215770   -4.24117433508052   -0.86329424077642
C          -1.84453667247210   -2.92977741937415   -0.70885065765303
N          -1.72856562157103   -6.60490558173680   -0.45300907362829
N          -2.91775922872262   -6.93453076191962   -0.79414431029875
C          -3.12404106043625   -8.23676432319741   -1.09486224290822
C          -4.37851679085533   -8.73278331856832   -1.42477383704784
C          -2.21634215709994   -9.35593381814220   -1.18002533004163
C          -0.84710195168456   -9.50723192757560   -0.98752189959366
C          -0.29775909571149  -10.76034019914137   -1.16202780588183
C          -1.08255081344271  -11.85806494120168   -1.52097543287171
C          -2.44224904699495  -11.73446204325342   -1.72071549279766
C          -2.99681158563269  -10.47450201704481   -1.54603161532024
N          -4.29851952891070  -10.05245649879638   -1.69022310009123
N          -5.35591281384497  -10.90563438606820   -1.99607817477577
H          -1.65317960934846    0.05877615630583   -1.07789468845367
H           1.43994978137402    1.20309652010831    1.40369734831400
H           0.89257780188127   -3.38867461043926    1.24076767642689
H           0.22379520331313   -5.72247455318849    0.94982211745100
H          -3.08158422160544   -4.51030614932923   -1.45651795220305
H          -2.42254384223938   -2.14768721849037   -1.17636718640235
H          -5.31227307161726   -8.20428911887734   -1.46464456027978
H          -0.24681133706832   -8.65589703962619   -0.71024912962123
H           0.76310885437577  -10.90237349969739   -1.01776725972930
H          -0.61425048618720  -12.82329146774521   -1.64380124670746
H          -3.05398207571259  -12.58188976273703   -1.98954589035896
H          -5.24340830366831  -11.29611238900480   -2.93016508942978
H          -6.23131946685987  -10.39433293546696   -1.94543845706478
