31
         -51.426605998672          0.000294639232
C          -1.14214910095754   -0.06921913680355   -0.26052813122213
C          -0.30608233389710    1.00191710570976   -0.08172146965764
C           0.92969234258682    0.42959280146385    0.26731145759151
N           0.84925701668114   -0.88017609915951    0.29865836656793
N          -0.41179728713097   -1.18978785326296   -0.02274460911796
C          -0.81619117343566   -2.52293813645529   -0.07105122835483
C           0.11715178812055   -3.51476738836130    0.24051250976332
C          -0.23882366374350   -4.84157868584442    0.19391598522525
C          -1.54667729777868   -5.21266598320835   -0.14296406888528
C          -2.47793602968502   -4.21257119366430   -0.45536530578992
C          -2.11648540951848   -2.88541079020207   -0.42599939745596
N          -1.81622058800377   -6.55888568268207   -0.22589166159403
N          -3.04223442855931   -6.90090181892233   -0.18946028806875
C          -3.29298874544087   -8.22749525464582   -0.36581758290215
C          -2.42397777212846   -9.30359045828380   -0.70401331709638
C          -3.24523957291213  -10.39461047705853   -0.76232119079848
N          -4.54488133394659   -8.67435338714062   -0.23791431367236
N          -4.50018968121068   -9.96716472253210   -0.47358319045070
C          -5.69198101375794  -10.76168561663226   -0.41305119972001
H          -2.17679604065690   -0.09760446786787   -0.53132705576438
H          -0.54102964498758    2.04121038391113   -0.18443282615878
H           1.85522327348116    0.92105794580100    0.49253148311324
H           1.11566590713960   -3.20956107634629    0.50916446130012
H           0.47404470410385   -5.61469406596205    0.43437872660482
H          -3.47778321448950   -4.51230572909695   -0.73046153640664
H          -2.84828186293417   -2.13426502465339   -0.67930207880505
H          -1.36986937424466   -9.24287015769995   -0.87371837001206
H          -3.04350246617704  -11.42438815928019   -0.98154710327562
H          -6.50883761672337  -10.10974246346758   -0.11116745967645
H          -5.57856551964986  -11.56679500632156    0.31519137361468
H          -5.91526386014345  -11.19553940133066   -1.38986097889530
