28
         -52.501667952543          0.000801429986
F           1.08499327175292   -0.12712682115544   -0.01606409253499
C           2.42606440154793   -0.10439090522768   -0.14824223038500
C           3.13022100930712    0.98042913332015    0.35006225017434
C           4.50019862381730    1.00838358211196    0.19923024816748
C           5.16364430020277   -0.05234595049469   -0.42829753980654
C           4.42479703177377   -1.13772568586369   -0.92049219678360
C           3.05434291255972   -1.16301492746587   -0.78567495329285
N           6.52694812971082    0.07635958759455   -0.58701648981290
N           7.16776092044151   -0.98831456416066   -0.86561244996342
C           8.49735589882854   -0.83564323649252   -1.10704941387899
C           9.29636927555454    0.33975825003012   -1.23267438030834
C          10.55024458096286   -0.12151194834385   -1.50597732969339
N           9.24669257261488   -1.92168813333283   -1.29730477309332
N          10.47413384374981   -1.48293079580557   -1.53192400933468
C          11.49334864027604   -2.38122329843529   -1.76574054407696
C          12.83403333970457   -2.24078623961272   -2.03794638409897
N          13.39034266656418   -3.46677410486152   -2.18527684569732
C          12.43056641534345   -4.33192127869379   -2.01119501341540
N          11.24822380472771   -3.72604715004904   -1.75169059446298
H          10.33818495704674   -4.12155193058966   -1.57394336431005
H           2.59976551940637    1.78270304332290    0.83841000775039
H           5.08181949413006    1.83553900578037    0.57463241054003
H           4.95416553848061   -1.93886825110967   -1.41309313694542
H           2.46504233210972   -1.98407849084275   -1.16357823270488
H           8.95663132036522    1.34891952159520   -1.13556276058599
H          11.47747396118710    0.38400082758166   -1.68088740989266
H          13.42127857546141   -1.35137075828152   -2.13507320271929
H          12.55072666237258   -5.39458848051745   -2.06445756883411
