33
         -50.910205275546          0.000671062467
N           1.23312897361565   -0.23027006722028    0.99429394850806
C           2.55898547364806   -0.19125418747766    0.62869604664059
C           3.35398470317826    0.91192311472229    0.95408922722156
C           4.69259635696555    0.92499163894123    0.64235946703578
C           5.28915907814475   -0.16928435447136    0.00381668292245
C           4.48901664158339   -1.27555026973452   -0.32149236453933
C           3.15022107760547   -1.28253250420583   -0.01818554641101
N           6.63028306411142   -0.06017696660124   -0.27869621082742
N           7.19988503769367   -1.11389267434603   -0.73718784152811
C           8.51958981549563   -1.00757608994764   -1.03520087946473
C           9.26542308351328   -2.08564748677175   -1.47689976540714
C           9.42971233606061    0.11276217207339   -0.98535457947930
C           9.29570507451493    1.45170826788354   -0.63536640873061
C          10.41003366567450    2.26151595601030   -0.70908369969865
C          11.64581561503672    1.76240854859397   -1.12312923548036
C          11.80304727858471    0.43787834420821   -1.47798449134827
C          10.68464817762182   -0.38124252569895   -1.40636253131905
N          10.55047175960565   -1.71920582382148   -1.69711011238557
C          11.60984934756905   -2.57612989484285   -2.14336695018261
H           0.79293314489928    0.64844790305035    1.21150454262697
H           0.64791617714084   -0.90178496235132    0.52561600982770
H           2.90098273110752    1.75681250624736    1.45405858097650
H           5.30797142430478    1.77591488706660    0.89099173436925
H           4.95169435788223   -2.11183053590054   -0.82302976022659
H           2.53605584689189   -2.13427658720102   -0.27674686774390
H           8.93789783066452   -3.09504211523952   -1.63811504868882
H           8.33762897403275    1.82901568162842   -0.31642534634711
H          10.33168435119348    3.30503170004585   -0.44134846804335
H          12.49619594333434    2.42731596877735   -1.16702128213329
H          12.76166565603031    0.05685144172544   -1.79807621627744
H          12.05290701455288   -2.18745540911899   -3.06326103240362
H          11.21400799549971   -3.57153886861521   -2.33487447582093
H          12.39291199224259   -2.64661680740605   -1.38389712564188
