28
         -48.612360138678          0.000513031362
C          -1.13332412369235   -0.00781194611511   -0.28069369643913
C          -0.23192765576048    1.05566626777695   -0.06859450464913
C           0.93597363307768    0.48053791968076    0.33297022840736
O           0.81772003972332   -0.85230450488009    0.38234303470648
C          -0.44708725356298   -1.16537121812311    0.00851662703871
C          -0.84615125093168   -2.55388500239525   -0.03014491207640
C           0.07752704721094   -3.55955728067790    0.28053385274010
C          -0.28420660684510   -4.88452593333711    0.22994756466536
C          -1.59280935514249   -5.24775368972074   -0.11323009694480
C          -2.52179999362450   -4.24155825446578   -0.42155909970602
C          -2.15129646826426   -2.91977668934388   -0.38396154399515
N          -1.86419132086527   -6.59317658233201   -0.19427584013913
N          -3.09225647566401   -6.92913386377130   -0.20919786365674
C          -3.33909065302660   -8.26047036990857   -0.37228503492552
C          -2.45184338492019   -9.34567257737304   -0.63362564643274
C          -3.26524624821789  -10.43999310383191   -0.71453231451642
N          -4.59633055477014   -8.69909795823280   -0.30712598082396
N          -4.53235902209065  -10.00005828632122   -0.51112174831448
H          -5.37974127423830  -10.54699175762295   -0.50154343511826
H          -2.14977135134290    0.07668989939586   -0.60510498836374
H          -0.42477152471261    2.10100721262076   -0.19711499261080
H           1.88541847624941    0.89949303786081    0.60262122079060
H           1.08327712817244   -3.27907173806876    0.55447155106684
H           0.42306449109213   -5.66395737147502    0.46866518617013
H          -3.52229660185670   -4.53892453111034   -0.69744968924726
H          -2.87129187985757   -2.15357465557606   -0.62671678973408
H          -1.38967702012045   -9.28555544671950   -0.74135378120028
H          -3.05122079601879  -11.47423157593295   -0.89593730669137
