35
         -66.389246362870          0.000416244467
N           1.28772431519574    0.32418080364362    0.23847566745266
C           2.42755844107028    0.27040349009347    0.12078463901658
C           3.82987298699434    0.19969102830070   -0.02033580546389
C           4.63632122408415    1.21309264104309    0.51047240713553
C           6.00160239002227    1.14741936242714    0.36770959585101
C           6.59371652886890    0.05643011538284   -0.28699982369555
C           5.77648589648325   -0.95336768551913   -0.82285787004835
C           4.41015267735529   -0.88068257727416   -0.69353586701937
N           7.94967945849377    0.09663283841650   -0.46345008283807
N           8.55414846400516   -1.01159908818074   -0.63590311923256
C           9.87522907389382   -0.96525738223376   -0.92297523420425
N          10.61908048766610    0.12375648455509   -1.10187369771819
C          10.68528253282026   -2.13504121795799   -1.09442956631851
C          10.58426543061291   -3.52533441088622   -1.06368506560313
N          11.63630273680044   -4.26998918092021   -1.29964221044617
C          12.81611303637036   -3.67183024856623   -1.57029554680769
N          13.85208385743437   -4.49291615491042   -1.80048656132877
H          14.75150457722009   -4.10437768575089   -2.01507686573019
H          13.70162823266835   -5.48417331213370   -1.77562847750494
N          13.04887984918622   -2.35873978421156   -1.62887701204165
C          11.97242270945907   -1.62851214495909   -1.38914835311806
N          11.86644263438661   -0.26692375494592   -1.37662254356089
C          12.85496800113795    0.66136592949484   -1.60610334437610
C          14.19182913650315    0.54522749679172   -1.90659646831668
N          14.72507511014206    1.78290909687592   -2.03656309183754
C          13.75555406693664    2.62939963419067   -1.82444431645301
N          12.58613160795867    2.00057785579852   -1.55583450912174
H          11.67598777075720    2.38346933113103   -1.35305463005045
H           4.17495948768411    2.04420764372869    1.02335322629845
H           6.64158718597463    1.91587833375864    0.77219377235051
H           6.24735902187135   -1.77201332269996   -1.34599330187806
H           3.77597953008132   -1.65382400082375   -1.10271318988870
H           9.65759680856650   -4.03960133008810   -0.84939000495111
H          14.77067838158966   -0.34528010120558   -2.02984144636123
H          13.85720634970631    3.69496129763270   -1.85593130219311
