23
         -38.367330802086          0.000739183704
H           1.16838340683827   -0.05837338768962    0.21870603218600
C           2.23980172816803   -0.06658254027739    0.08159595428941
C           3.01901570515359    0.92865008925313    0.65358344596036
C           4.38625809366484    0.93161991419459    0.46980781966351
C           4.99400486143313   -0.08354372401961   -0.27631802559066
C           4.20127574538121   -1.08573830913473   -0.85015424610658
C           2.83433638728952   -1.06864711144001   -0.67210051090012
N           6.35597506975655    0.01384131911291   -0.47105398011740
N           6.95763606985877   -1.05218232614104   -0.82018246759964
C           8.28121851619972   -0.92343147591069   -1.10525132107995
C           9.09847575674238    0.23160478472023   -1.24211499155892
C          10.33104581549218   -0.25412810233615   -1.58660334370862
N           9.00423957841807   -2.02442411533417   -1.34402399435174
N          10.21291848750514   -1.60277060173703   -1.62618230195168
N          11.21157624253079   -2.48896758675702   -1.97951832573861
H           2.55256979070300    1.70763087399450    1.23923247840225
H           5.00854643799946    1.69679973997447    0.90809248298277
H           4.68720427323217   -1.85031499766947   -1.43748637518102
H           2.22311458499876   -1.83849952322020   -1.12109182314628
H           8.78946118174970    1.24707755340601   -1.11202993373984
H          11.26330104697053    0.22747032302748   -1.79962814229847
H          10.78176028978669   -3.40101720305509   -2.11495175677829
H          11.92261093012752   -2.55525359296116   -1.25189667363653
