28
         -53.306413422875          0.000918082974
F           1.34270671074407    0.07743266688653    0.63497416028223
C           2.67808631316543   -0.01527334616601    0.50596077183085
C           3.48612693538204    0.63923619233284    1.42342842061570
C           4.85440035024186    0.55604025981496    1.28026825582810
C           5.40920634568353   -0.19562203121901    0.23730262693813
C           4.56759316185425   -0.84966842695458   -0.67468789991461
C           3.19997052502836   -0.75534105072514   -0.54490185039332
N           6.78291973024458   -0.18506348299709    0.13427004710648
N           7.31133541715373   -1.08595325494582   -0.58309743107427
C           8.62927363228251   -0.98957873966067   -0.86969201166013
N           9.32974018261148   -2.06494852503176   -1.17004753511187
C           9.42517434363832    0.20575924834218   -1.06637425903217
C           9.20724178059329    1.57132877868080   -0.93339458198603
C          10.25519849054305    2.41524700437188   -1.23735949307492
C          11.48838818460186    1.92425816725302   -1.67590474723408
C          11.72173917380659    0.57186762933518   -1.82548129528019
C          10.66917847442205   -0.27394713367319   -1.51141899642488
N          10.55935025976236   -1.65521931945069   -1.54251853341614
C          11.52987213838394   -2.49207345354552   -1.87457012449511
N          12.40247039213625   -3.17557492518881   -2.16322018342739
H           3.03555662960847    1.20296603198893    2.22486610685154
H           5.51593130146571    1.04960903717522    1.97462600655884
H           5.01559701467346   -1.41369537236114   -1.47841183232877
H           2.53235406373312   -1.24241447562679   -1.23829989092941
H           8.25193470923746    1.94185750274177   -0.59625999209334
H          10.12555906269082    3.48210948657225   -1.13674171290091
H          12.27718983701821    2.62337654871372   -1.90825134564086
H          12.66762483929121    0.18694498333563   -2.17303267958931
