36
         -61.261196829368          0.000524887714
C          -1.16614974329082   -0.06126758671445   -0.24054783179050
C          -0.34226581307376    1.01616148741030   -0.04454347059070
C           0.89080610566052    0.45320169760850    0.32904387448723
N           0.82015651149239   -0.85716205390001    0.35725501370596
N          -0.43178275630084   -1.17634653119181    0.01062488104042
C          -0.82200224180379   -2.51261909690135   -0.05597009480314
C           0.11311915959364   -3.49767038989434    0.26885742397745
C          -0.23235293947943   -4.82693797595728    0.20906392781367
C          -1.52352697898864   -5.20939016727922   -0.17685843795178
C          -2.45800189182176   -4.21388147152370   -0.49859832199966
C          -2.11242538074602   -2.88430500155955   -0.43937395620518
N          -1.77663303045084   -6.56127514357757   -0.21617488804635
N          -2.96410306232049   -6.90058373398735   -0.56232023861499
C          -3.20650680272090   -8.22803490734055   -0.60664055377082
N          -4.41635151320244   -8.65337910120016   -0.97160005304167
C          -2.36534133443597   -9.36286503068345   -0.32057117271484
C          -1.04379434872822   -9.55486003051752    0.07461954021491
C          -0.60703188641314  -10.85014757064748    0.24068414026686
C          -1.45243045646776  -11.94732012294353    0.02833470172540
C          -2.76245887639285  -11.78637379968915   -0.36224495580325
C          -3.20441947747232  -10.47854816792105   -0.53392956833224
N          -4.40995612002606   -9.96978487814757   -0.92156238010983
N          -5.55054362146453  -10.70045655763850   -1.19424164266384
H          -2.19500800101338   -0.09727988091854   -0.53165606507665
H          -0.58313684570689    2.05362742928020   -0.15177494419947
H           1.80771595443312    0.95206953414805    0.57246039249530
H           1.10243248652332   -3.18572592574872    0.56266897526551
H           0.48278423040349   -5.59549084097039    0.45732956548753
H          -3.44983835065569   -4.51992299743461   -0.79399468513948
H          -2.84735851354544   -2.13641265085030   -0.69359926157110
H          -0.40015115744799   -8.70607313452524    0.23725540335264
H           0.41302302717041  -11.03409625819070    0.54376067464237
H          -1.06196362493269  -12.94319358743534    0.17644409665065
H          -3.42186875127407  -12.62498609207445   -0.52058464644391
H          -5.46220618258984  -11.20327769213282   -2.07739969303560
H          -6.32889777251014  -10.04851176895049   -1.25401574922112
