33
         -62.935154959423          0.000824931335
N           1.41193545271745   -0.21524676663320    0.97722366064588
C           2.54502928403205   -0.21403467214475    0.79995885427954
C           3.93988564258346   -0.21306320142946    0.57931537403787
C           4.74306800685317    0.74860566431750    1.20215925276820
C           6.09955386543868    0.75672122062433    0.97654243679973
C           6.68154200165667   -0.20951208531374    0.14271205613979
C           5.86873299610780   -1.17023467625360   -0.48092267549462
C           4.51115173671579   -1.16999365254543   -0.26674948693373
N           8.02737966485440   -0.09511645507457   -0.09222673079629
N           8.63716736775284   -1.13468390952204   -0.51124582361037
C           9.93291227336218   -0.95362252242741   -0.85595587470940
N          10.67864919495586   -2.00331963738308   -1.17521350694692
C          10.71301771978618    0.25076248650106   -0.99140246824801
C          10.59401867193245    1.62970280378709   -0.84534124887634
N          11.63000019656264    2.40602854014091   -1.09433813154585
C          12.77161032778234    1.84985951061547   -1.48833022422704
N          13.02293477496098    0.56869442154905   -1.67309353833029
C          11.98133642745912   -0.21068181199381   -1.41746419941436
N          11.89603919481251   -1.57165122866609   -1.50566577686376
C          12.88465471629719   -2.45607143712538   -1.87323914253580
C          14.19860324821544   -2.27911142663993   -2.24151263607243
N          14.74723134895726   -3.48620078767723   -2.50970551321815
C          13.81093463133798   -4.37326160942957   -2.31497021919338
N          12.64697409284955   -3.80142871187819   -1.92385578592909
H          11.76196376437338   -4.22885097581595   -1.70092382008988
H           4.28713857240474    1.48262005832967    1.85029864007255
H           6.73838944067458    1.48674333353073    1.44884461387768
H           6.33596472030253   -1.89151621369811   -1.13442823237347
H           3.87703780481074   -1.90345577102861   -0.74348886115513
H           9.67603425812470    2.10707249152696   -0.53205943680974
H          13.59109443312637    2.52873498260485   -1.68055295337830
H          14.75089668307944   -1.36663710089027   -2.32160655231687
H          13.93344748511944   -5.42915085995734   -2.44492204955129
