38
         -60.779977063974          0.000446038680
C           1.27882886504703   -0.07449538772670    0.93201602795874
C           2.75391020780046   -0.10131449143000    0.67632160050470
C           3.57039853125486    0.93205960350435    1.12848393099417
C           4.92328992077396    0.93232378624908    0.86866903628127
C           5.50473880605394   -0.12464681936418    0.15987478430190
C           4.68584243417330   -1.16593317598350   -0.29613281833056
C           3.33265690175726   -1.14411898391892   -0.04231252263325
N           6.85220854634076   -0.03064911724895   -0.10344763726162
N           7.44518493394027   -1.10863309042720   -0.44992525172151
C           8.75564502147125   -0.99668861035485   -0.78613355342292
C           9.54361055327504   -2.09681585626838   -1.05593711747725
C           9.60337730192252    0.16130573580220   -0.96217380916613
C           9.38594789891812    1.53044861299725   -0.85864588522064
C          10.43854684296683    2.37990118163959   -1.12967835529353
C          11.68632717136287    1.88809431780851   -1.51271948911519
C          11.92425848926469    0.53222917680489   -1.62297607221647
C          10.87479435835484   -0.32569612935252   -1.33032481878478
N          10.81226688625517   -1.70992095671815   -1.37103736971366
C          11.85821364109056   -2.56904157633418   -1.65200192469994
C          13.20340034917028   -2.51363706576728   -1.38059340677462
N          13.81413862408486   -3.62617378749597   -1.85927064164028
C          12.88226669047076   -4.35016115996941   -2.40498548403203
N          11.66356987887140   -3.75872458922161   -2.31049234373961
H          10.78527936688777   -4.10125377852784   -2.66416726144881
H           1.05929007505473    0.39651544851218    1.88765135027615
H           0.86490160946828   -1.08022966410761    0.92859581125955
H           0.77641578110742    0.49987381792707    0.15233386661717
H           3.13185170810922    1.74684452461326    1.68746965505846
H           5.55797378815594    1.73065869339095    1.22216630666103
H           5.13929257182772   -1.96956560273290   -0.85698270445084
H           2.70684046177365   -1.94863386882012   -0.40388192644930
H           9.26909813260440   -3.13289967982587   -0.99884211880811
H           8.41331741707880    1.89902394993908   -0.57564916840389
H          10.29712378588956    3.44778077951293   -1.05362198372624
H          12.48321773432979    2.58295338743190   -1.73206420879725
H          12.88534020118900    0.15773700829893   -1.93793906922416
H          13.75634989871705   -1.76096073872546   -0.85825352049701
H          13.03657461318581   -5.30149589411079   -2.87157190686330
