31
         -56.248463540785          0.000989492248
N           1.28231906705611    0.23297072747708    0.09643958406992
C           2.42283567353999    0.17908520939371   -0.01902447194273
C           3.82470878564039    0.11071858745288   -0.16041283612859
C           4.63064872222853    1.13388430355261    0.35321243749876
C           5.99520101753638    1.07347529182951    0.20354486480777
C           6.58887825743061   -0.02380732279882   -0.43915966684235
C           5.77290981851314   -1.04589094707402   -0.95352340778113
C           4.40683374955320   -0.97689833033578   -0.81979162159766
N           7.93787375850399    0.02224203201356   -0.65114308976906
N           8.56792613056667   -1.07506037869755   -0.74996750950770
C           9.88327868613725   -1.02411075750519   -1.07210931318265
N          10.62670362034718    0.06435409147436   -1.25716212167473
C          10.69182799170893   -2.19345756676774   -1.24880313436988
C          10.60386543888780   -3.58401179413690   -1.22080378249909
N          11.66234657115718   -4.31826609655957   -1.46446079166534
C          12.83456719455505   -3.70879200392275   -1.74314025435041
N          13.87443800701095   -4.52633667385118   -1.97998818386721
H          14.77300168308208   -4.13652480323587   -2.19559267533284
H          13.72885810006198   -5.51750495105174   -1.94467396264451
N          13.05698744987892   -2.39594989491904   -1.80511837461069
C          11.97290552535741   -1.67269719064550   -1.55556916231442
N          11.86474718574833   -0.32164606221820   -1.53980063811577
C          12.91413863349386    0.62549240059531   -1.77528413994211
H           4.16849076488661    1.97002938624303    0.85721938366864
H           6.63337076542905    1.85059320271444    0.59414235743490
H           6.24504828287764   -1.87021256440383   -1.46671914441000
H           3.77461991207197   -1.75937308501733   -1.21425169480627
H           9.68428628818649   -4.10911632854036   -1.00170660204315
H          13.82532747150471    0.06568150070499   -1.97475373719716
H          13.04625457144790    1.26160429553538   -0.89897380884197
H          12.66395087559974    1.25564572269454   -2.62982450204243
