31
         -50.959713128000          0.000686735270
C           1.15808215782448    0.08870531302211    0.35545922766298
C           2.64722322903847    0.05814121197011    0.20873044314981
C           3.45709926963051    0.95856322980446    0.89347285860054
C           4.82735012332283    0.93504425075293    0.74142150032587
C           5.42588154157588   -0.01223903706425   -0.09538486860044
C           4.61297545762891   -0.92199284534558   -0.78726268636301
C           3.24677836533313   -0.87748880437492   -0.63473128681551
N           6.79599845396016    0.05306188593089   -0.21905569811571
N           7.36425001837953   -0.94009653605251   -0.78128131655238
C           8.70655840594146   -0.81998082846409   -0.97157411907721
C           9.56005510854361    0.31958080786030   -0.85083608491471
C          10.79267891893138   -0.13639441502865   -1.20771581767296
N           9.40496229118016   -1.87737888754519   -1.37712417541816
N          10.65624640526908   -1.46117509597165   -1.51046944763056
C          11.64701321279899   -2.33272580437227   -1.90469710245363
C          11.50668163264231   -3.66395353745812   -2.17425361211050
C          12.72800521363897   -4.26171099259491   -2.54819223643848
C          13.76610764457393   -3.38792206363065   -2.55845667757554
S          13.28567202700582   -1.79679770286633   -2.10907232950911
H           0.85387397506246    0.80137899917809    1.11781750702271
H           0.78221212402110   -0.89711860696142    0.62591528582045
H           0.69278060118031    0.37188276376550   -0.58870094074329
H           3.00383591894375    1.68811924284358    1.54974918676354
H           5.45958726955274    1.63059506880203    1.27172394745423
H           5.08678270541214   -1.64015683808829   -1.43931296287641
H           2.62212503144213   -1.57651870798643   -1.17358468988148
H           9.26551937703621    1.30374783569945   -0.55390821067281
H          11.74504758062943    0.35146938319883   -1.27178577601578
H          10.56303622675953   -4.17020844950966   -2.10009594669093
H          12.82729170582186   -5.30223802199425   -2.79872799866003
H          14.79366800691877   -3.56991281751910   -2.80131597201146
