38
         -60.781448116725          0.000480209726
C          -0.92880428193448   -0.00577302172158   -0.26443892319583
N          -0.27686876514267    1.07970917851989    0.21153395216694
C           0.67070141751800    0.61732812136004    0.97948973447624
N           0.67014772999830   -0.73429135546043    1.02042350044020
H           1.28910339147086   -1.32250573970573    1.55255688270916
C          -0.36316489537202   -1.16759600082588    0.22288404927322
C          -0.69680307425596   -2.55675658032326    0.01097920327026
C           0.14986727427999   -3.58985411946831    0.43038690115781
C          -0.18466840794620   -4.90732743585339    0.22162754529822
C          -1.39139796420654   -5.24510925551586   -0.40201548967241
C          -2.23748373825167   -4.21255022984924   -0.83525227673844
C          -1.89298636977795   -2.89892927429241   -0.63299787156199
N          -1.63038644641774   -6.58185485960815   -0.61153138031340
N          -2.83537373335986   -6.90747195135994   -0.89765298475813
C          -3.06722592792367   -8.21216942853530   -1.17299946152594
C          -4.33417542035710   -8.68814805329294   -1.47226633501932
C          -2.18720104416811   -9.35639473017148   -1.23201721505187
C          -0.82329199186212   -9.53815046646389   -1.03319148326610
C          -0.30698459737860  -10.81007790813394   -1.17271691903180
C          -1.12128292687676  -11.89316616584403   -1.50502130834753
C          -2.47805603467990  -11.73692368228854   -1.70767016252066
C          -3.00222206698023  -10.45973363622373   -1.56751119308665
N          -4.29931634074057  -10.01715044055464   -1.70724180912881
C          -5.41811844012037  -10.84660619965821   -2.04926350034969
H          -1.75471792962624    0.11115569919939   -0.93615977613815
H           1.37299908973316    1.22178022106252    1.51823943901440
H           1.09113012261016   -3.36227774761002    0.91165620484767
H           0.46857019206446   -5.70252708506438    0.54763514203424
H          -3.15765499900520   -4.47951489992438   -1.33294949001816
H          -2.55391004588461   -2.11251598853955   -0.96393700143277
H          -5.25035308873371   -8.13181436579051   -1.52718125078990
H          -0.20055238050059   -8.69621810833328   -0.77754698813990
H           0.74948417761582  -10.97753340340252   -1.02302841510397
H          -0.68028653609689  -12.87390715985208   -1.60596557266306
H          -3.10331528698280  -12.57885485329193   -1.96486845089477
H          -5.26329999507252  -11.31344972256244   -3.02497317594528
H          -6.32108487103240  -10.24033039158290   -2.08652929770700
H          -5.55043579460149  -11.63493895904298   -1.30444482228484
