27
         -56.946440346797          0.000497883227
F           1.03419151277982    0.14300603163084   -0.21127281430937
C           2.37614671520479    0.06726766033276   -0.26455381093917
C           3.12806524509992    1.09460624744541    0.28363924722288
C           4.50309256980858    1.01130363585608    0.22738624925151
C           5.12076614752240   -0.08984904770552   -0.37793138138764
C           4.33322098188626   -1.11418258423557   -0.92575445174702
C           2.95982034158931   -1.03802073078183   -0.86741267500416
N           6.49897805758029   -0.07071768461519   -0.38996735182361
N           7.07635925876408   -1.05852521260584   -0.93610880647230
C           8.41477908213791   -1.04648221985332   -1.09215038076320
N           9.17233430387486    0.03589836567890   -1.25987187119866
C           9.21319871120958   -2.22535925146889   -1.26729440370599
C           9.10210446952491   -3.61453957562669   -1.23333908977302
N          10.14680105951843   -4.37132424955018   -1.46532402568258
C          11.33673576096793   -3.78824792862948   -1.72501809309202
N          12.36430833370706   -4.61953387004828   -1.94935772050094
H          13.27171191776197   -4.23879423946147   -2.14422145640649
H          12.20487085919698   -5.60943588193723   -1.92129761317661
N          11.58565281141942   -2.47787798989321   -1.77833485364032
C          10.51690453288039   -1.73662135949498   -1.54922874507265
N          10.39009741622682   -0.39471383061704   -1.51538737053569
F          11.34472264615172    0.51277308262630   -1.87352725090397
H           2.63049667600127    1.93500801224668    0.74125755123104
H           5.12707958736911    1.78806150387898    0.63963673298798
H           4.82577993653992   -1.95692783044284   -1.38591544828963
H           2.33257967650186   -1.81344589836627   -1.27910853862411
H           8.16930138877431   -4.12032515436210   -1.02503162764384
