41
         -74.181759618194          0.000602569461
C          -0.59417155655148    1.26174462256775    0.15972222082107
C           0.72427410810673    1.12989740792091    0.06916131228765
S           1.62548980633111   -0.37032994239168    0.30473697892758
C           0.23988162641332   -1.43994362493682    0.53155808202379
C          -1.02934786054209   -1.05364963698639    0.59122746448514
N          -1.50108950714187    0.24995535802497    0.46141803390335
C          -2.85359088803113    0.52071379956697    0.60619885859374
C          -3.63048252123041   -0.21973373318467    1.51067995851798
C          -4.97038454934535    0.03536397900723    1.65669237504603
C          -5.59611982057303    1.04019237619614    0.90244800234291
C          -4.81636428274811    1.78231935767663   -0.00444067639922
C          -3.47739283240946    1.52989036669501   -0.14553933802624
N          -6.93576665733847    1.21020950910774    1.09625983747214
N          -7.49035143835549    2.16369319982005    0.43008975159591
C          -8.82064815801777    2.29491253944655    0.62512668167723
N          -9.49428306669102    3.23552639637243   -0.01671545644616
C          -9.72548154769239    1.54307995534759    1.46411832826760
C          -9.72008350632068    0.48484442345574    2.36243375586950
N         -10.84650827125106    0.10094369274273    2.93718161721298
C         -11.96684268176456    0.74721453763548    2.63617990034205
N         -12.11890841489500    1.76498047087880    1.81089723667957
C         -10.98539383865268    2.14840988114568    1.23476904946584
N         -10.78143990655709    3.15691689099020    0.33832108942201
C         -11.71391025838731    4.02383387048986   -0.18438278661457
C         -13.05632558394479    4.06189377192286    0.06548059307892
C         -13.68952092061379    5.09378158880129   -0.65647689699519
C         -12.82758374372957    5.80672350507588   -1.42771794982814
S         -11.20535417747440    5.24382754960772   -1.30176813711570
H          -1.03281434853212    2.23959127311820    0.03441596913491
H           1.35727326943280    1.97053639631498   -0.15129572081040
H           0.51330288798553   -2.47748181901762    0.60189049986097
H          -1.80222501688368   -1.80069969945746    0.69228977593603
H          -3.16371701838310   -0.97307957753689    2.12754192593811
H          -5.56209978563003   -0.52295851496286    2.36519299722056
H          -5.30796820399896    2.54035671663948   -0.59442242564939
H          -2.90990618589152    2.08852044281765   -0.87520880125483
H          -8.81936208919106   -0.05409837968647    2.62069577618637
H         -12.86452423013227    0.39929259915310    3.13050894365611
H         -13.54705538042449    3.37960689266051    0.73385711893438
H         -14.74420640554156    5.29369225179733   -0.60125212616562
H         -13.04421704340156    6.63675930516300   -2.06976381959504
