31
         -51.634501126688          0.000589690263
C           1.17214711419365    0.14256758718487    0.29367040094947
C           2.65529064003489    0.09217749543634    0.09725541477732
C           3.45318923357543    1.18580194427896    0.42204722633811
C           4.81311564581794    1.16067505763536    0.20387622914277
C           5.42034168230725    0.01701664019923   -0.32631969724426
C           4.62126399303162   -1.08783314506714   -0.64863431999206
C           3.26066216426921   -1.03957064027522   -0.44379801896504
N           6.76958146494050    0.08861749888833   -0.57965137463291
N           7.39846663446179   -1.01517472114784   -0.70041938594350
C           8.70868929187063   -0.92443804150759   -1.05142041674364
C           9.54089435419066   -2.02902556478916   -1.10054620747399
C           9.50554014668178    0.21226137123473   -1.45612834594425
C           9.24127883580639    1.56855883013578   -1.61937868962823
C          10.26605726659385    2.38958397081134   -2.04166517124073
C          11.54263783727852    1.88992998975679   -2.30527359162818
C          11.83450486571557    0.54937528249844   -2.15708523657310
C          10.80400966528379   -0.27500095165605   -1.73250751425401
N          10.76111196591006   -1.61839171119637   -1.49816154283708
F          11.83222045536714   -2.46323982790206   -1.64221514828349
H           0.90891131911789    0.82836061638333    1.09542272571523
H           0.77694268201387   -0.84401717113940    0.52552435164522
H           0.68865873639995    0.49116682585788   -0.61999016992222
H           2.99517889048269    2.06901610859600    0.84443978418928
H           5.43296519242291    2.00706352305756    0.45738754950322
H           5.09532108601272   -1.95982263228357   -1.07394302821083
H           2.64907959392486   -1.89231077990810   -0.70454428862238
H           9.33503567068154   -3.05458281254410   -0.86968143321843
H           8.25342293144674    1.94862012056151   -1.41639695374656
H          10.08179843525011    3.44520265691391   -2.17414386468376
H          12.31684036454961    2.56657355719130   -2.63361108875044
H          12.81756184036426    0.15484892279750   -2.36194819372284
