41
         -74.683409273678          0.000525499399
C          -0.47142164225561   -0.20602153001704   -0.48154253869937
C           0.11393048473605    0.86605191078956    0.13791140955554
C           0.54512183573447    0.36377466828392    1.37977788611451
N           0.24424788012092   -0.90687859716363    1.50294192100856
N          -0.37516424954587   -1.26132707031308    0.37068446512225
C          -0.82864158339818   -2.56594632720154    0.20061152238858
C          -0.65685146296084   -3.47415711856107    1.24866861523649
C          -1.10485424598042   -4.76756979153606    1.12463563972348
C          -1.73536111647776   -5.19067346731560   -0.05308796743218
C          -1.89219354446023   -4.27668680983641   -1.10647865747455
C          -1.44750595146866   -2.98180839604899   -0.98102945833586
N          -2.16278978138024   -6.49729114847893   -0.07705923482643
N          -2.77398439793438   -6.87486327082072   -1.12740092462768
C          -3.12794079178024   -8.16743622733834   -1.26008464535736
N          -2.49438161339126   -9.21363718011515   -0.73990075670736
C          -4.17728773764040   -8.61467584776920   -2.13448362913278
C          -5.18396408435774   -8.12224710309489   -2.95762764942338
N          -5.97592776492069   -8.94662879676252   -3.60648828282034
C          -5.80647914190664  -10.27469785813488   -3.45409711133112
N          -6.65404779615344  -11.06344005427519   -4.13483499325809
H          -6.55610490076087  -12.05924963885387   -4.06955242604205
H          -7.34212754848274  -10.63960772076815   -4.72818339680073
N          -4.88806455439056  -10.87552917161481   -2.69416428005730
C          -4.10271323609156  -10.02395538986772   -2.05695847917483
N          -3.06966116225572  -10.32478322316162   -1.22455884553241
C          -2.62776937531392  -11.58771177189857   -0.91414022101513
C          -1.60572212766928  -11.92657055592680   -0.07350754640902
C          -1.44078715047999  -13.32358983627890    0.01201333909990
C          -2.32979285928302  -14.00734345722630   -0.75370205942834
S          -3.40522016702527  -12.96770997290101   -1.61251080860631
H          -0.93742782505325   -0.27642644888846   -1.44198458442962
H           0.21994373861611    1.86292647254544   -0.23714892257150
H           1.05371583633544    0.87930395791518    2.16984230865032
H          -0.17061456400715   -3.12983517740371    2.14715611380331
H          -0.98241350607492   -5.47909728840158    1.92561277544670
H          -2.37458741489291   -4.61133897277271   -2.01224948620826
H          -1.58179019957445   -2.29552272798120   -1.80254944467034
H          -5.35707880606247   -7.06505879110908   -3.10637817128193
H          -1.01600716006488  -11.19635493948510    0.44768028915559
H          -0.69127675695531  -13.79544954428902    0.62131071528908
H          -2.42541355509252  -15.06825578592245   -0.86934247893990
