36
         -62.121829223107          0.000716601296
C          -1.19531337498413   -0.04079616424524    0.17526174332815
C          -0.34184410643490    1.02777103096989    0.25407358066926
C           0.93986698368580    0.46722053299641    0.10588739876474
N           0.86878774774631   -0.83328937927503   -0.05205103950544
N          -0.43076205611590   -1.14948061510009   -0.00959396806698
C          -0.83391293663064   -2.47468880335924   -0.15000987521683
C           0.14165189323401   -3.44866018725495   -0.37930864692612
C          -0.21640307521526   -4.76643194842290   -0.53303246977308
C          -1.56038890571758   -5.15142723062303   -0.43905569766656
C          -2.53411579560411   -4.16844723978703   -0.20946331000765
C          -2.17721301860589   -2.84756347039439   -0.07185104748377
N          -1.84426634741840   -6.47936686301638   -0.64443339996855
N          -2.99214307498666   -6.88651784022654   -0.26107197763278
C          -3.29347774811167   -8.18493361123443   -0.53127674883268
C          -4.45393382533702   -8.77088495537926   -0.08501770815664
C          -2.57438119470888   -9.19588501434026   -1.28591821247054
C          -1.36827904005030   -9.20770957434278   -1.97548394527537
C          -0.98601210982990  -10.38033062084819   -2.59788319323218
C          -1.77762527759495  -11.52623427997712   -2.54512214801846
C          -2.98296601430112  -11.53672776379143   -1.86754310130973
C          -3.36156053292485  -10.36024418277221   -1.24590210713726
N          -4.50805349384230  -10.07837074167874   -0.50288365788136
C          -5.47922703185415  -10.93510956823560   -0.24188360753815
N          -6.31730476106880  -11.68451014956504   -0.02157877081391
H          -2.26301780063768   -0.07552599446583    0.23470156911048
H          -0.59301161978522    2.05840542817046    0.39637290335680
H           1.89072972742235    0.96167702581458    0.10896457585820
H           1.17166444868995   -3.13532676361878   -0.43511270156399
H           0.53021064070974   -5.52540481756474   -0.70729924945576
H          -3.56842150840001   -4.47263351513287   -0.15634795258141
H          -2.94473553538932   -2.10914351327323    0.09953924199766
H          -5.24051253555991   -8.34693917092327    0.50876843884852
H          -0.76024767799577   -8.31865751678706   -2.01349713286910
H          -0.05252516403750  -10.41457566782425   -3.13926524249855
H          -1.44472709452082  -12.42374791647027   -3.04374984002401
H          -3.60377878383026  -12.41872893801558   -1.82292270002834
