31
         -51.448202025342          0.000846471794
C           1.21458024643327    0.00527898980199    0.29099422253254
C           2.69386890247195   -0.00728358132034    0.06855508233642
C           3.43677067965005    1.16512980552441    0.19088593381603
C           4.79452090818467    1.16960267255004   -0.04101794342227
C           5.45117437461225   -0.01650208822094   -0.39034000036400
C           4.70787222216693   -1.19943360383185   -0.51171506214784
C           3.35003819189761   -1.18471355446393   -0.28754506086582
N           6.80274774306675    0.07859698361625   -0.62721472830124
N           7.43436119782191   -1.02243137592368   -0.76788603701371
C           8.75226122594695   -0.90405047034263   -1.06828389460024
N           9.51614548028804   -1.98555149715333   -1.09709558162604
C           9.53921024743716    0.25082792907193   -1.42134562756419
C           9.42462501491003    1.62372648004129   -1.60242054667362
N          10.48339610375314    2.33272812492767   -1.94893376204011
C          11.64326130159892    1.70788814052743   -2.12868429782461
N          11.89706297003188    0.42077232385812   -2.00640358978867
C          10.83127294701201   -0.29004676032839   -1.64889113261991
N          10.75040408725475   -1.62441827963729   -1.43833055959078
C          11.81457878499902   -2.57949408542096   -1.53713492106986
H           0.94657451759363    0.70775657619587    1.07716879163487
H           0.85122492960984   -0.98416325949271    0.55817318636851
H           0.70615251522480    0.31673540182866   -0.62259366123269
H           2.93635286236747    2.08159466202356    0.46985086431541
H           5.37502840942949    2.07418937623707    0.05588992809197
H           5.22540065872654   -2.10556221964002   -0.78796843779506
H           2.78049228415920   -2.09842581925242   -0.38598743320098
H           8.49291532877564    2.15592107150350   -1.47032541953575
H          12.47954555778760    2.33270852907950   -2.41268744432444
H          12.69253461404258   -2.06080291272760   -1.91641178557701
H          11.52667266150310   -3.38403218354220   -2.21428415235013
H          12.02865303124366   -3.00665537548895   -0.55601692956673
