39
         -71.712292186117          0.000910794583
C          -0.65704053008329   -0.16144688108223   -0.60764898443275
C          -0.04904246502566    0.91565480424288   -0.02083797269517
C           0.52148382633206    0.40000776192298    1.15888195125374
N           0.27843357730985   -0.88286186009912    1.27656037837363
N          -0.44011453077464   -1.23296231195406    0.20230187285637
C          -0.84806059074980   -2.55094176346270    0.03457552076896
C          -0.49335605861991   -3.48837029193924    1.00920914641346
C          -0.87121364924497   -4.80244579840793    0.87604158910349
C          -1.60977124856462   -5.21859686569915   -0.24103724800869
C          -1.96854947884805   -4.27055247612356   -1.21270882488370
C          -1.59480492820759   -2.95533845850951   -1.07587296085373
N          -1.93586291334704   -6.54978089256696   -0.29469880286987
N          -2.54576484546389   -6.94734266951341   -1.34959673386709
C          -2.84097145953578   -8.26853932076348   -1.37270969499290
N          -3.48531448288027   -8.78012192020402   -2.41147817249857
C          -2.55432156625580   -9.31332958827102   -0.42079355218352
C          -1.94573737649412   -9.50061984655574    0.81554526995526
N          -1.90554735188279  -10.70534084385222    1.35165217370839
C          -2.45103104253355  -11.72107386554537    0.68955977460208
N          -3.05621170251901  -11.69042374470433   -0.48132641453898
C          -3.09684581888654  -10.47761974117731   -1.01733944153085
N          -3.64197969052911  -10.09291117820241   -2.20742836752201
C          -4.28270402841845  -10.87932322969974   -3.13869274655329
C          -4.56115995897464  -12.22530629441580   -3.18471733884862
N          -5.21892638364799  -12.50078246889539   -4.33558245963797
C          -5.34029978216417  -11.37061255376567   -4.97479760901591
N          -4.78575973791399  -10.34093130933373   -4.28998328869522
H          -4.72558716675711   -9.36397777431679   -4.52996865452989
H          -1.21138454389070   -0.22696339933191   -1.52029455749023
H          -0.01369336033567    1.92402660263352   -0.37772159115810
H           1.08894418450859    0.91536078931048    1.90781617890099
H           0.08017207865103   -3.15052208852827    1.85729698067670
H          -0.60072622610958   -5.53431695313492    1.62066220947084
H          -2.54376801216276   -4.60137287393845   -2.06368991733775
H          -1.88223894559574   -2.24359781011150   -1.83379379641916
H          -1.49504836689390   -8.69041417965422    1.37106016910845
H          -2.39172653994061  -12.68863517951000    1.16979968380097
H          -4.32512977978987  -12.97957791557592   -2.46410360736304
H          -5.81820910376025  -11.25477560926359   -5.92613016106726
