26
         -49.618915099304          0.000695371839
H           1.16568375261533   -0.00848343055580    0.11004980754303
C           2.24465780113516   -0.03534426544053    0.07656608129510
C           2.98040340695377    0.93135621534433    0.74705444392346
C           4.35915948177044    0.90111689492901    0.70639926627778
C           5.01282127544331   -0.10773851126902   -0.01047926566594
C           4.26384120788254   -1.08192245597006   -0.68576855779897
C           2.88766089622798   -1.03872357631622   -0.63763673141456
N           6.39106980395924   -0.04865678116467   -0.00547507491466
N           7.01372460183424   -0.98070975670502   -0.57484673160826
C           8.33638358757127   -0.93558315533771   -0.80521911927364
N           9.12591258325704   -1.97730518378303   -0.64891897695381
C           9.04965155796796    0.13438675655887   -1.47351092927778
C           8.83606827732180    1.42525636406331   -1.93111346756813
N           9.82538443720227    2.08863620645948   -2.50385200363891
C          10.99845314340493    1.48669576150114   -2.64969850587390
N          11.32920586066439    0.26274200787517   -2.28074516355849
C          10.34500230420647   -0.39149923900143   -1.68767523612709
N          10.34614665575735   -1.65877090324803   -1.16796748229804
C          11.37401479860522   -2.49778312149792   -1.11952577937660
N          12.26670237669081   -3.21169869772431   -1.08536148350469
H           2.47349946558583    1.70750477533922    1.30024201979801
H           4.95526060727161    1.63982620145862    1.21911471159620
H           4.78611703773936   -1.85356725844200   -1.23123244690489
H           2.30647081838059   -1.78695878859072   -1.15572365064886
H           7.88600247168701    1.93471443495090   -1.83784466617799
H          11.77546178886570    2.06304950656782   -3.13225105784852
