30
         -47.702692030302          0.000412732455
H           0.94700607838814   -0.18343636026489   -0.60150175378857
C           2.02329859904745   -0.14708328495271   -0.68802157362725
C           2.67865841573993    1.07476566580796   -0.68720146217136
C           4.05313011663960    1.12491159623214   -0.79885457471268
C           4.79421036894074   -0.05590392002886   -0.90895040895448
C           4.12347412962183   -1.28596785600971   -0.91107940221648
C           2.75013863698035   -1.32393139705027   -0.80140489498863
N           6.16323368395348    0.09188519079352   -1.02454070224149
N           6.84229904611879   -0.99544953791796   -1.04276671395184
C           8.18297654400406   -0.87561953348746   -1.16552307085685
C           9.02193711880394   -1.98279803571870   -1.20892817485340
C           9.04081041276260    0.27918858650950   -1.27808003514429
C           8.81652388784408    1.65161101545976   -1.30698885360759
C           9.90507282928141    2.48974908486663   -1.42866262895668
C          11.20549764845595    1.98891515766677   -1.51831379057763
C          11.45602921224272    0.63247621416406   -1.49144926178853
C          10.36192779533334   -0.21377010195044   -1.37164573545067
N          10.30284172439269   -1.58704253109279   -1.33699876004050
N          11.42302564620334   -2.41723390534648   -1.33942094164636
H           2.11115812152127    1.99026624081748   -0.59983383379234
H           4.57920793384143    2.06740148724353   -0.79868315759951
H           4.70650486710662   -2.19007397801024   -1.00178886588450
H           2.23551099811823   -2.27472420014155   -0.80342008275808
H           8.75566512041651   -3.02107641290563   -1.15193378846863
H           7.81011989466437    2.03062517227944   -1.23541895827220
H           9.75578206833652    3.55907990038520   -1.45350211889781
H          12.03177575762118    2.67841369966448   -1.60806823544346
H          12.46319592423333    0.24717523638761   -1.54718195321479
H          12.05756179715892   -2.14268492777796   -2.08674169653353
H          11.13192562222751   -3.38120826562233   -1.47467456955982
