35
         -57.128955495347          0.000596950224
H           1.12084113150878    0.00021930788135    0.82696618793366
C           2.18454693707472   -0.01724860299755    0.63978820367721
C           3.00673940763704    0.93724190566788    1.22114461050389
C           4.36319526468021    0.93005367030660    0.97243086846834
C           4.92043636356105   -0.05605686751426    0.15073829176943
C           4.08400548888329   -1.01779498272010   -0.43049382977590
C           2.72716119937559   -0.98947980164577   -0.18786294586609
N           6.26792576756569    0.03903347670752   -0.11421202020280
N           6.85867321261609   -1.02513521253172   -0.49751227731728
C           8.16157439992629   -0.90112440104719   -0.85637418809181
C           8.95092979785116   -1.98903959863523   -1.16613429450565
C           8.99742061719836    0.26753847389083   -1.02546759261857
C           8.76830964144385    1.63163938246346   -0.89207304214306
C           9.80241274134905    2.49864398360415   -1.18050914448059
C          11.04035179590027    2.02702619331979   -1.61432592494666
C          11.28963373805717    0.67499575027799   -1.75192577922823
C          10.26328933823729   -0.20164475545122   -1.43448547262802
N          10.21072626866186   -1.58828815376178   -1.49148657863337
C          11.24971047324965   -2.44137354175638   -1.80526031674399
C          12.57674274472114   -2.31112800707735   -1.51204175035052
C          13.34433415154584   -3.39450040980623   -1.99111122909512
C          12.60066710542492   -4.32972981454611   -2.63154229020185
S          10.93195383828940   -3.91492775352677   -2.67995422283851
H           2.58168875628403    1.69338627491917    1.86545381885042
H           5.01736846400064    1.66368308052350    1.41874800735105
H           4.52658779754966   -1.75977558336943   -1.07850522363992
H           2.08309788670524   -1.72750178649827   -0.64475602649376
H           8.68915456302612   -3.02959335818606   -1.15134511707732
H           7.79992701982806    1.98451410517824   -0.57615871985466
H           9.65161222472699    3.56340612020343   -1.08223224062495
H          11.82113287254599    2.73348669124343   -1.85417099934029
H          12.24279514536937    0.32373116870710   -2.11495252406248
H          12.98386156071360   -1.49559273526769   -0.94410711854111
H          14.40733659823668   -3.47278442986131   -1.85146614930214
H          12.92210568625462   -5.24891978869568   -3.07841296994916
