37
         -65.023981737264          0.000886455935
C          -0.53749376407069   -0.16149118642927   -0.57921600184445
C           0.09108620656377    0.90897046916372   -0.00019121513042
C           0.65836997918948    0.38962002992713    1.17797633669384
N           0.39464557349018   -0.88931790161387    1.30234136931611
N          -0.33407230066964   -1.23179562379895    0.23370637468670
C          -0.77883850582070   -2.54224132933833    0.08118107803934
C          -0.48148337457185   -3.46885559700105    1.08384691093226
C          -0.90602143343621   -4.77140217560125    0.97144866958543
C          -1.64605328564277   -5.18271267534948   -0.14470169280885
C          -1.93287265439665   -4.24896575170855   -1.15188888756235
C          -1.50556573530575   -2.94655806806635   -1.04102865001028
N          -2.01558176334508   -6.50754722149362   -0.17753046812336
N          -2.80944995206328   -6.84815191681468   -1.11271467513147
C          -3.11900995925433   -8.15486154551954   -1.25871341582514
N          -2.38777862404338   -9.19427838962680   -0.86721020800723
C          -4.25882520611760   -8.61812614751692   -1.99606346508460
C          -5.38005791400048   -8.13602696781597   -2.66261272058530
N          -6.22222479163213   -8.96731002965810   -3.23287166079278
C          -5.98649857411823  -10.29268815649758   -3.15016645924773
N          -6.90445102141747  -11.08552288044742   -3.73501560940290
H          -6.75403811251894  -12.07662361673818   -3.76199261651520
H          -7.64845923104287  -10.65723386575708   -4.25392824782248
N          -4.96035310883445  -10.88793365711248   -2.54354024471199
C          -4.12031133472630  -10.02899899195434   -1.97774449672182
N          -2.98196215388828  -10.30711686596068   -1.30296849755413
C          -2.41290112365200  -11.60220149919878   -1.07354826823040
H          -1.10038904274069   -0.22110959612643   -1.48708125812734
H           0.13966672759704    1.91524286509703   -0.36153626576500
H           1.23816938969208    0.89803679720843    1.92222026567540
H           0.08558876840145   -3.13282358633265    1.93701102471478
H          -0.68559870255313   -5.49730060179452    1.73792145803781
H          -2.49382980419447   -4.57631500547060   -2.01397549359406
H          -1.73650179606539   -2.24625003523458   -1.82869423493046
H          -5.60364498556217   -7.08118206307933   -2.74815460614126
H          -3.05820584824017  -12.33539742140870   -1.55283652520770
H          -2.35149954184232  -11.79956626356880   -0.00211392047894
H          -1.40804299916834  -11.64943352736191   -1.49588368232409
