36
         -65.272211979656          0.000452400970
C          -1.09671484357002   -0.05971345698881   -0.12490493390355
N          -0.29201124323057    1.02562741107086   -0.11265489557203
C           0.92743624470838    0.56479710757238   -0.05252562895366
N           0.95344622636148   -0.78591373477514   -0.01888957950494
H           1.77076351297353   -1.37169770252559    0.01481845900359
C          -0.35024916747797   -1.22198252313759   -0.06788608590035
C          -0.74525410278640   -2.60952540128447   -0.05053605529939
C           0.17700586391690   -3.63615195475728    0.19014982824630
C          -0.21804983546534   -4.95312628448124    0.19792552338598
C          -1.55662905093160   -5.29630408672811   -0.03084599953244
C          -2.48571730635880   -4.26979804981714   -0.27142333971415
C          -2.08455314709838   -2.95769803487371   -0.27943340871279
N          -1.84828832100308   -6.63747676185299   -0.03447570556533
N          -3.08762149979224   -6.94341969267500   -0.12473303764513
C          -3.41713423821543   -8.24315248627896   -0.24267020081306
N          -2.60730474022786   -9.25542933317826   -0.57432039108017
C          -4.75967698761163   -8.72975915885877   -0.13128981349361
C          -6.04940729909012   -8.28406878389456    0.14728899768085
N          -7.06163907327572   -9.11879167353783    0.11998370817085
C          -6.83602212121395  -10.41487169470447   -0.18164637599302
N          -7.93129493282354  -11.20034501414508   -0.24724344258256
H          -7.80105982731414  -12.19403457733351   -0.30644156169776
H          -8.79489495517350  -10.82657759227987    0.10319204171963
N          -5.66100721462600  -10.97879609211896   -0.45257103052489
C          -4.65186580618966  -10.11503947272474   -0.41153503218045
N          -3.34474764864537  -10.34945260082419   -0.66703169029666
N          -2.76647108948130  -11.57034796749628   -0.94759919484374
H          -2.16056465318104    0.05702551623839   -0.16311794939956
H           1.81105387564320    1.17099081497958   -0.03106828540620
H           1.21510310186806   -3.40324429939404    0.38209133983420
H           0.48930034537805   -5.74639639780882    0.38396601210866
H          -3.51457644508680   -4.54127304297584   -0.45304855561516
H          -2.80383483790709   -2.17658596031758   -0.47121437180867
H          -6.27310496339000   -7.25412372205490    0.38944390150251
H          -3.36566795368909  -12.10706038361152   -1.56860711158856
H          -1.84549586598990  -11.41027291242496   -1.34515613402308
