34
         -62.210252320752          0.000903173354
H           1.15890094809245    0.22203731524108   -0.18331748367506
C           2.23576666704221    0.15553512798250   -0.23367682569481
C           3.01715376005697    1.18705619707898    0.26586445508688
C           4.39324026983080    1.10194538725464    0.20976549475566
C           5.00353552107374   -0.01995318635884   -0.36171591769395
C           4.20701320557427   -1.05735223152890   -0.86629109575624
C           2.83369870087486   -0.96473113694338   -0.79566404491017
N           6.38295886051059   -0.01473428877311   -0.36433622266128
N           6.95559253543455   -0.97857565029070   -0.95851904238582
C           8.29761676704544   -0.96933159091891   -1.09153859347095
N           9.05315119289292    0.11290072175032   -1.22558858376823
C           9.09340475216746   -2.14782659926767   -1.28825634535299
C           8.97183225022300   -3.53283985832001   -1.28898704829491
N          10.01886388596631   -4.29311544899946   -1.51747084609856
C          11.21136821140071   -3.70443109466136   -1.73668316707919
N          12.25175520352586   -4.53209430261660   -1.93869973171945
H          13.14643251845889   -4.14001361953854   -2.16685705605556
H          12.08326922517741   -5.51983083970447   -1.99101864587349
N          11.46470916524854   -2.39494825493006   -1.75991783399783
C          10.39660273338620   -1.64961431898923   -1.53360388838890
N          10.30724701437609   -0.28759069485811   -1.50317472785626
C          11.28969252923110    0.64767868300637   -1.74254149285815
C          11.21084482769824    2.01435453085691   -1.72041813335272
C          12.51484551197517    2.46505586542398   -2.03097646135089
C          13.27142281845614    1.34879187236394   -2.21322515107166
O          12.53080047065790    0.23552210996187   -2.03998055642462
H           2.54718495542754    2.05624463078831    0.70198595231548
H           5.02360474673228    1.89031786665123    0.59018498097637
H           4.69255833686164   -1.92100444203876   -1.29554855326297
H           2.21863132697370   -1.76589952834252   -1.17948405029836
H           8.03175528268703   -4.03899030817080   -1.11501478464095
H          10.33688095200226    2.59255476881894   -1.50973604762606
H          12.83929877538879    3.48236900582384   -2.10583139769594
H          14.30527607754888    1.21118331224854   -2.45763715381840
