23
         -38.395744482555          0.000712342922
N           1.08089799525732   -0.01797931745580    0.14170992429664
C           2.44335916895265   -0.02916408471839    0.00097242045992
C           3.15103294323564    1.16625203336835   -0.17229490795366
C           4.52172119898438    1.15869289994326   -0.26166852369683
C           5.23614208008669   -0.04378312069056   -0.17600490039454
C           4.52522716415562   -1.24231554423043    0.00315132313210
C           3.15664478758014   -1.23282034237665    0.08672092265469
N           6.60104664399467    0.04354313124008   -0.29626450237261
N           7.25451857823984   -1.04539998464280   -0.15378898275015
C           8.60518716737409   -0.94194566560447   -0.31848931068675
C           9.40452253337067    0.15769292428656   -0.74725923887097
C          10.68121273580828   -0.32795006326093   -0.75221825043073
N           9.37208296139543   -2.00650269901020   -0.08806405710877
N          10.60876126192519   -1.62014632087439   -0.34898110485632
H          11.36791089915467   -2.27383616041935   -0.23691979546161
H           0.58534213646805    0.80814975722083   -0.14602159628185
H           0.59026379488704   -0.88962791462167    0.03687333617588
H           2.60373727333391    2.09630969566020   -0.23654519774412
H           5.07206663466762    2.07672655756126   -0.39832974669021
H           5.08560849768848   -2.16264267121330    0.06449103024606
H           2.61029995904427   -2.15654372298704    0.21930514209346
H           9.05351741050252    1.13334563015055   -1.00748315183787
H          11.61683617389305    0.12996498267493   -1.00453083192175
