32
         -55.023449990760          0.000855502371
C           1.42179404288848    0.39020183970984   -0.11899131356183
O           2.80838387919871    0.14558343138104   -0.14369900084969
C           3.24967440188661   -1.10230107110790   -0.43736864344117
C           4.64001463645996   -1.26956697005296   -0.43686794330590
C           5.19518558088119   -2.49231550636070   -0.72051893694023
C           4.37648923185199   -3.59451144469372   -1.00495716937506
C           2.98648168878057   -3.42056828681863   -1.00942006793800
C           2.42886846894923   -2.19218237368518   -0.73326334623293
N           5.01525027714211   -4.77981549808077   -1.28491473530108
N           4.26796842734070   -5.80639220213231   -1.42468362034565
C           4.91652137945322   -6.96221894072418   -1.73439596519499
C           6.29937797411693   -7.21022619452593   -1.99649116916881
C           6.36273179520054   -8.54334997031369   -2.26683788703648
N           4.21746642321785   -8.08851734327121   -1.84678785791440
N           5.09191915946821   -9.03293893241614   -2.16493795834534
C           4.68023948648021  -10.33275652658994   -2.35674950188018
C           3.40746818591254  -10.81336675706837   -2.24159723889569
C           3.33554529946183  -12.19576502889387   -2.51066450171048
C           4.53836098530516  -12.74002625114003   -2.82353462375387
S           5.80752765813843  -11.57681855215319   -2.79931602300151
H           1.31376086722359    1.44100440377608    0.14444303919333
H           0.91847634149308   -0.22512320646960    0.63342190173502
H           0.96559216938127    0.21428416762516   -1.09838644139477
H           5.25483329693065   -0.41275977820090   -0.20893773138115
H           6.26526916387521   -2.62857182348902   -0.72034809840737
H           2.36479511356517   -4.27278463675225   -1.23948001123548
H           1.35493096421266   -2.08670371479898   -0.74889170470048
H           7.08771004936676   -6.48811641547317   -1.97958159710323
H           7.18406940889083   -9.18423481993130   -2.51937341624156
H           2.57719786907337  -10.18760855074021   -1.97475337755992
H           2.42209411033605  -12.76081049931809   -2.47276294716757
H           4.77143166351181  -13.75641254728596   -3.06968211153987
