36
         -61.654349549477          0.000920754514
N           1.43982459038982   -0.16560116397531    0.91005423955331
C           2.78045939987875   -0.12955417053726    0.64298896725167
C           3.57234449064951    0.92536887144564    1.11328662134008
C           4.92688621394902    0.93462197986717    0.88948371040007
C           5.54379284352969   -0.11514813997883    0.19383517956141
C           4.74767834983303   -1.17438305546274   -0.27589750844893
C           3.39438925097352   -1.17736180220876   -0.05812318633698
N           6.89580935490770   -0.01352322358053    0.00118317938014
N           7.47257256393972   -1.02604689708686   -0.53261875812755
C           8.78819048361496   -0.88597976373364   -0.81657752372730
N           9.50235902580473   -1.95284202888126   -1.13897668646204
C           9.60542158706434    0.30173172829107   -0.91844662571984
C           9.39678521909810    1.66302889885713   -0.72756703278092
C          10.46243040769561    2.51067164246570   -0.94003776826320
C          11.71068770101398    2.02564672004525   -1.34212227363416
C          11.93801844772667    0.68119152495529   -1.54632921608485
C          10.86703228417656   -0.17705075257125   -1.32803947069243
N          10.74216502419033   -1.54473242390423   -1.43602416707281
C          11.68810745397723   -2.47822784048103   -1.78796082667065
C          11.56209922313413   -3.83530621993131   -1.91614033743916
C          12.84387696008205   -4.29674109672363   -2.29743894715680
C          13.64146268325648   -3.19920261902516   -2.37146516015064
O          12.94519305112940   -2.08164139282177   -2.06160207383514
H           0.99378756476022    0.67894310034931    1.22403910103211
H           0.86860852169044   -0.81135248861905    0.39277143290368
H           3.10172016682631    1.73308243678856    1.65543329443586
H           5.54094405607412    1.74574462291868    1.24958056375668
H           5.23185172257427   -1.97414899120039   -0.81442627411062
H           2.78325202057283   -1.98966017277816   -0.42460832203038
H           8.42852643184322    2.02337083080714   -0.41959347302877
H          10.33806474308248    3.57382951082078   -0.79602512301156
H          12.51766236726357    2.72593518648406   -1.50060338957792
H          12.89958779969933    0.31302479210300   -1.86390684517592
H          10.67055105879622   -4.40146537378672   -1.75499655961666
H          13.12784341515476   -5.31072606204348   -2.49000158146381
H          14.67519352164526   -3.07099616686883   -2.62067715899776
