34
         -65.511224431704          0.000789054493
C          -0.52266165873573    1.10919555614164    0.70176494314870
C           0.79051183538739    0.92870199908424    0.61372279323185
S           1.58895106733855   -0.45892636691076   -0.12759736592142
C           0.14036398066648   -1.26859879408555   -0.72379172785292
C          -1.10929117478685   -0.88107709845898   -0.49348163358419
N          -1.50362712856060    0.23949950923863    0.23313374842755
C          -2.84741534479801    0.49081943420944    0.45610234195018
C          -3.75175775024244   -0.57290710262485    0.60963938919614
C          -5.08337131404070   -0.33488742171224    0.83402042031960
C          -5.57531047299000    0.97816195369334    0.91337179656873
C          -4.66932348135180    2.04445253880674    0.75201967513423
C          -3.33941198426145    1.80532329641328    0.53185842442237
N          -6.91238222561358    1.12241234688121    1.13070770286550
N          -7.34036032427081    2.32929602809063    1.26845688323330
C          -8.67251671960530    2.44206595015697    1.47172247048404
N          -9.21525055748679    3.64010615050388    1.63737764088887
C          -9.70332796910345    1.43277110290268    1.55467031256104
C          -9.86556174861322    0.05430191450814    1.47714470438152
N         -11.06390994693187   -0.48015263491175    1.62177830897879
C         -12.10267281083112    0.32001305564114    1.83975128111616
N         -12.10359152291974    1.63485565543137    1.93284354880897
C         -10.89834577644120    2.16706545908903    1.78741866507594
N         -10.50625078490945    3.45546917283473    1.81789657682111
F         -11.29872411828168    4.54229741053531    2.01651275411912
H          -0.89745173447499    1.98061764694813    1.21588377357353
H           1.48165135074622    1.64548607833106    1.01981937867948
H           0.35594686354545   -2.12820440982999   -1.33271816371172
H          -1.92140994698202   -1.43059395919183   -0.94509022607469
H          -3.39139613355402   -1.59050678172293    0.59325263075575
H          -5.77220111288740   -1.15343070745982    0.97301385234980
H          -5.05778002496983    3.05038359856902    0.79055863163431
H          -2.67420420004547    2.64106996513125    0.37333641476714
H          -9.03778152457203   -0.61739269134644    1.29918455718725
H         -13.06238560542281   -0.16473785488640    1.95343549646387
