41
         -71.044039425804          0.000604376766
C          -0.88029256788393   -0.06312920023971   -0.90359581329251
C          -0.13065535001218    1.02796005010478   -0.41845399040549
C           0.76564669574588    0.50232742872318    0.46308599747000
O           0.62167434904692   -0.82540944693837    0.55353729697436
C          -0.38508451500795   -1.18594179751361   -0.27949893230320
C          -0.75101581006861   -2.57995175911776   -0.37793872289037
C          -0.06931129745477   -3.53942911355004    0.38066708100324
C          -0.40529848808053   -4.86902997347994    0.29400101219533
C          -1.43461492344855   -5.28607904428493   -0.56073813173301
C          -2.12218771902073   -4.32444072170865   -1.31988240299820
C          -1.78490990499218   -2.99725450136540   -1.22736003993690
N          -1.69866316132061   -6.63385507667697   -0.58401544389658
N          -2.60112712664194   -7.01926822490487   -1.40927593429515
C          -2.84602419635711   -8.35016634443832   -1.42725112231300
N          -3.76929159977828   -8.82279847110538   -2.24969299993270
C          -2.25059672178715   -9.43705753770477   -0.68587729634816
C          -1.26355911213118   -9.53789533161616    0.28804476176830
C          -0.96404603707973  -10.79384281975029    0.76922993928906
C          -1.62711625576425  -11.92975094220053    0.29611706267957
C          -2.60820113247578  -11.85212642372792   -0.66988845486555
C          -2.91605791815522  -10.58804396235856   -1.15940241609397
N          -3.82199344789492  -10.14735785022292   -2.10202799546830
C          -4.72945784359059  -10.85143879798307   -2.86122822258320
C          -5.64305206124997  -10.29287315445174   -3.71335265211996
C          -6.43320115615439  -11.26062162355324   -4.36375017352681
C          -6.11697654947361  -12.53104189447045   -4.00728423819334
S          -4.83545048977202  -12.58390138506091   -2.85848006356919
H          -1.67660470369814   -0.01919718288216   -1.61737274832410
H          -0.24179462067709    2.05844130726487   -0.68698150481422
H           1.52868677956528    0.95550108425142    1.06487622441043
H           0.72629244372493   -3.21900927040371    1.03604601043917
H           0.11794750942663   -5.61299476951047    0.87493731482575
H          -2.91579910957448   -4.66078916184314   -1.96949538534490
H          -2.31827046256350   -2.26530120747338   -1.81412112596868
H          -0.76451186392936   -8.65134763058822    0.64277905608072
H          -0.20397278057537  -10.91040853441342    1.52735093587467
H          -1.36282942269715  -12.89639147922742    0.69799131153454
H          -3.10752308657114  -12.73988193852506   -1.02187145111131
H          -5.72504708627974   -9.23135191235851   -3.84933769493748
H          -7.20752139164346  -11.01774943142789   -5.06854345965519
H          -6.55175786370321  -13.45184195326627   -4.34034558762290
