35
         -61.445397608336          0.000905637833
C          -1.15898997960757   -0.02570415831101   -0.27892214378682
C          -0.27162482109350    1.04395876126062   -0.04118791171271
C           0.89674541718448    0.47532820154032    0.36856330592388
O           0.79177762916566   -0.85869533480739    0.39953218865560
C          -0.46473812000835   -1.17978388466888    0.00552729763480
C          -0.85262615259409   -2.57040366695890   -0.04500098301239
C           0.07127781552057   -3.56960836358630    0.28668281705378
C          -0.28243935379779   -4.89625539693276    0.23838624774835
C          -1.58406255759821   -5.26867881871580   -0.12339861976256
C          -2.51165800647086   -4.26913026226420   -0.45866557827338
C          -2.14804354455052   -2.94563674452423   -0.42422565819658
N          -1.84643985954471   -6.61366339128696   -0.19581595027019
N          -3.07336657182931   -6.96205808565598   -0.22246711784918
C          -3.29991504079187   -8.29243405828682   -0.39270837552027
C          -2.39249558179537   -9.35484564966465   -0.69559230003075
C          -3.17950117271526  -10.46260200006390   -0.78172226136223
N          -4.54324329624997   -8.75914937629098   -0.30995944241100
N          -4.46226691143636  -10.06084921780059   -0.54064430541561
C          -5.59115827425533  -10.84930353795811   -0.51574483165303
C          -6.86592638704741  -10.44282795297690   -0.24275822695499
C          -7.78628973620664  -11.50927268823197   -0.29972866012887
C          -7.20670729728116  -12.69602230471872   -0.61149670765345
S          -5.50760884569131  -12.55115106418723   -0.84760349290701
H          -2.17190339415876    0.05286730567071   -0.61539914875435
H          -0.47368179033776    2.08881940316112   -0.15798524487121
H           1.83817378028934    0.90033789666093    0.65619437845205
H           1.07043473173690   -3.28208263781738    0.57678082416443
H           0.42401146494247   -5.67044665104018    0.49547802201147
H          -3.50515802654195   -4.57296438414409   -0.75193639031023
H          -2.86597818054457   -2.18454739157725   -0.68842134339616
H          -1.33475149331630   -9.26726168827875   -0.82464855742815
H          -2.95103185723853  -11.48924236459473   -0.98869672644852
H          -7.10870659197635   -9.42275323261858   -0.01373860819652
H          -8.83888450545111  -11.39520550753817   -0.11459157888458
H          -7.66517348870851  -13.65816175279228   -0.72026491645360
