39
         -71.243554632675          0.000707019732
C          -0.89372933410651   -0.08095077582941   -0.37517433877947
N          -0.22329440021552    1.00644786244099    0.06133147921925
C           0.65790316103885    0.56378474306608    0.91681309059222
N           0.58426715572317   -0.77687940614830    1.06671966507187
H           1.17046480426505   -1.34904924925917    1.65131556620778
C          -0.41360075511840   -1.22685668989384    0.23356104506086
C          -0.80071143881603   -2.60883729672441    0.09952258233066
C          -0.34930911723947   -3.58914028196358    0.99355417957852
C          -0.71963672155846   -4.90410203020564    0.84289324972311
C          -1.55118353417201   -5.29058924049125   -0.21689123104393
C          -2.01850217824352   -4.30928698424265   -1.10855083895923
C          -1.64998654133305   -2.99818649845320   -0.94788373182929
N          -1.85557857456076   -6.62467522999772   -0.29540257522996
N          -2.53291025605637   -6.99323758424753   -1.32003211118323
C          -2.82565104651144   -8.31323497426253   -1.36924363114885
N          -3.47406263975700   -8.80576518047780   -2.41197403027001
C          -2.54361786819088   -9.37521512522044   -0.43295790493512
C          -1.93470801428996   -9.58422368277047    0.79836903583480
N          -1.89869771013479  -10.79766752472027    1.31793153618062
C          -2.45392064833773  -11.79797070807537    0.64317975308207
N          -3.06188560236873  -11.74582307145495   -0.52632630867074
C          -3.09493475145092  -10.52546260688264   -1.04763263567780
N          -3.63808397276824  -10.11724172991114   -2.23335197116203
C          -4.27429820028389  -10.88971309507997   -3.17891643697573
C          -4.49757522311642  -12.23747345980821   -3.14712603469307
C          -5.17794280919563  -12.67751592155189   -4.30004524025438
C          -5.45268218400743  -11.66978271831240   -5.16960809801189
S          -4.89017110742407  -10.14165615317122   -4.61313441794111
H          -1.68854064192915    0.02112327448238   -1.08568424688004
H           1.36006967384599    1.17777715353546    1.44465617060511
H           0.28711033195351   -3.31760593301194    1.82386002512652
H          -0.37195297260410   -5.66134283231663    1.52875119019980
H          -2.66576558766017   -4.61916419920098   -1.91463892576376
H          -2.00385344822567   -2.25037724688883   -1.64028759178719
H          -1.47839771077251   -8.78558151062350    1.36593876885466
H          -2.40144461152743  -12.77336875167011    1.10789088868640
H          -4.18390464931852  -12.86425048950679   -2.33355006471922
H          -5.44929171081578  -13.70328422792165   -4.47165965633953
H          -5.95594916471515  -11.72882062322674   -6.11376620409942
