35
         -62.120434523539          0.000276565091
C          -1.17734179165135    0.02379344089802    0.19425506752067
C          -0.25344239494181    1.08699652995659    0.26515385170499
C           0.97808905680285    0.52088160753373    0.13015294171145
O           0.87797461359792   -0.80646652819143   -0.01736317366760
C          -0.43896408272096   -1.12455131443571    0.02072772284589
C          -0.83266273752672   -2.50814050770373   -0.11875046818724
C           0.13850761862047   -3.50109721901113   -0.29741213662954
C          -0.22288679999701   -4.81808511082677   -0.44886593478309
C          -1.57247252430234   -5.19249073269286   -0.40571150435522
C          -2.54720812379153   -4.19845837524101   -0.22469623370083
C          -2.18193055358159   -2.88169224979837   -0.08795691929645
N          -1.85788054929579   -6.51696373320753   -0.62511931650196
N          -3.01880969938364   -6.92312278109910   -0.27641994706123
C          -3.32531977362204   -8.21150666458766   -0.57310030173258
C          -4.52670893034566   -8.78611464405055   -0.19203414777783
C          -2.58968800879912   -9.22990656027164   -1.29039120635514
C          -1.34601498549724   -9.26724886867217   -1.91293399939770
C          -0.95153145179923  -10.44228207658926   -2.51895446217216
C          -1.76653219895326  -11.57585973296834   -2.51905194613320
C          -3.00594389422406  -11.56953370009566   -1.91222970526743
C          -3.40104037814051  -10.38841582193834   -1.30343544491755
N          -4.54219502736823  -10.05893867355622   -0.63119394653540
F          -5.59173896055100  -10.91710215991896   -0.42365016829524
H          -2.24255663332420    0.10283883199635    0.26343553788594
H          -0.47391125641668    2.12644948656748    0.39758054319440
H           1.96382171985520    0.94252707593459    0.12325804738775
H           1.17928213538130   -3.21570805637678   -0.32101476912501
H           0.52307006377508   -5.58631988988896   -0.58417129884602
H          -3.58493183199229   -4.49629328485217   -0.21058124992846
H          -2.94044294862491   -2.12561531523652    0.04464841758282
H          -5.34426287699875   -8.36409054986296    0.35670847547878
H          -0.72093403715235   -8.38923256988077   -1.91153538192631
H           0.01011950737245  -10.49220380668284   -3.00728506986895
H          -1.42005794691106  -12.47571593411066   -3.00424261406202
H          -3.64277431748345  -12.44067011114201   -1.90834925878786
