35
         -61.581446035968          0.000416950706
C          -1.28482239929940   -0.10158030823819   -0.01181701363913
N          -0.52479831140419    1.01381817015238    0.04674905354988
C           0.71303328619173    0.60156823119407    0.07125343248990
N           0.79451388398006   -0.74692609462020    0.03908228146464
H           1.63513265994468   -1.29963285808975    0.03271602833057
C          -0.49091341038442   -1.23325501406997   -0.01896040629402
C          -0.82983505135491   -2.63472891474037   -0.06738387268671
C           0.12987636876087   -3.63318250978178    0.14329966013702
C          -0.20862755080565   -4.96431786701504    0.07608130073619
C          -1.52863818169578   -5.34799189639602   -0.18927352235416
C          -2.49677958960728   -4.35138733038741   -0.39289293148035
C          -2.14981222125310   -3.02511217262966   -0.33560643302797
N          -1.77314949483465   -6.69552030020822   -0.29517752119871
N          -2.99967957096247   -7.05084741953136   -0.30802924893249
C          -3.22626885431350   -8.37739309312943   -0.50054931305520
C          -2.32704581450539   -9.44495786992415   -0.79931861314014
C          -3.12239575632442  -10.54668361564002   -0.91328942310516
N          -4.47672218475978   -8.83437711378622   -0.44463855271121
N          -4.40318704928383  -10.13535724726596   -0.69100432419282
C          -5.55131188743194  -10.89785974712901   -0.69756651058865
C          -5.80047901840780  -12.23354900557984   -0.90828493909362
N          -7.13103781040356  -12.46286523968357   -0.79593126463793
C          -7.68290422752973  -11.31274618215211   -0.52698775258259
N          -6.76557533905121  -10.31951063494935   -0.45449165801859
H          -6.88301845100481   -9.33652990120259   -0.26402143652108
H          -2.35294181610418   -0.02713963060672   -0.03247768907233
H           1.57131695697430    1.24210061742158    0.11294937291821
H           1.15287783841294   -3.36728532579264    0.36974125580239
H           0.53063198586534   -5.73337010925606    0.23996561309727
H          -3.50859195064613   -4.65960339766192   -0.60813149277851
H          -2.89692619198032   -2.26594147017086   -0.50703129391655
H          -1.26629112721697   -9.36715641070151   -0.90872470180803
H          -2.89815405091352  -11.57095849553693   -1.12960942450336
H          -5.11862100526062  -13.02832517946545   -1.12920019177540
H          -8.73208466339130  -11.15891466342441   -0.37854846741110
