32
         -58.757146969618          0.000600986979
H           1.26721674288423   -0.03940457103542    0.68414488273787
C           2.33684484217473   -0.05402384087809    0.53576760251341
C           3.12959116957797    0.92212864921684    1.12165433434979
C           4.49518920433859    0.91356961620763    0.92707736626223
C           5.08440478134823   -0.08957832337301    0.14860795995205
C           4.27703034398812   -1.07378721735643   -0.43901176542863
C           2.91331516141004   -1.04769160954365   -0.24429731731668
N           6.44753786923008   -0.00479258210028   -0.02608609231194
N           7.01869727510391   -1.01768913825904   -0.54946269519231
C           8.33422978126317   -0.87905220459270   -0.83749651139234
N           9.05884815206080   -1.94107363309835   -1.15212474304418
C           9.14074904847861    0.31087533236244   -0.95612316315404
C           9.04208599793061    1.68944069684278   -0.81100012876540
N          10.09710353368995    2.45069382701410   -1.03375429237697
C          11.23358470737881    1.87336369870129   -1.41143093249363
N          11.46304144396311    0.59006090013109   -1.60493230223897
C          10.40632967842825   -0.17428394912507   -1.36780090974407
N          10.29431000965604   -1.53383767231091   -1.46263014351641
C          11.26136928079835   -2.45220058168209   -1.81540545706397
C          11.17727355396459   -3.81566437119416   -1.90657006435610
C          12.46414755242136   -4.23779401790307   -2.31213720984174
C          13.21564674638021   -3.10887532268721   -2.43283567165709
O          12.48909520507744   -2.01695834373741   -2.13132400929952
H           2.67569241724908    1.69220624723463    1.72733016014486
H           5.13082671640795    1.66163187174952    1.37452200274671
H           4.74965862266700   -1.83259551340585   -1.04390703436711
H           2.28923341475038   -1.80216229661430   -0.70016120545105
H           8.12567344427395    2.18119286498696   -0.51510677062108
H          12.06926496192677    2.53741844785015   -1.58572914118016
H          10.31167578419596   -4.41033030274872   -1.70766959249220
H          12.78103341570471   -5.24459965148333   -2.48847633034730
H          14.23705914127787   -2.95043700916882   -2.71387082505206
