27
         -44.552370968273          0.000361661891
H           1.11512779427529   -0.01844017703267   -0.00779358927874
C           2.19228055120543   -0.05472210077990   -0.08092920445937
C           2.95911457899499    0.95595739593910    0.47997640589465
C           4.33501585557025    0.91624101626848    0.38322921234279
C           4.96109715309507   -0.14691654963095   -0.27600325931945
C           4.17897425671547   -1.16313889546237   -0.84197514262758
C           2.80540342864761   -1.11100915256435   -0.74099615117207
N           6.33844903261006   -0.08715069602048   -0.34983668658607
N           6.92232509474029   -1.11741772006224   -0.81200112056382
C           8.25946786236029   -1.06702382600207   -1.01570685527081
N           8.99211412459536    0.02595480560345   -1.20666781986976
C           9.07610877969091   -2.23834689126639   -1.18545339561692
C           8.87307098308935   -3.61300255226447   -1.10932806064849
C           9.95348972192780   -4.43475208155579   -1.34020922932826
C          11.22069234065005   -3.91569407039579   -1.63373804847784
C          11.44876141880550   -2.55982035623892   -1.70925323573286
C          10.35928361588181   -1.72567379893830   -1.48099443856532
N          10.22957363074025   -0.36918372609945   -1.48710572580206
H          10.93117551021476    0.31933054392026   -1.71000481458649
H           2.47712156637270    1.77731808590690    0.98987446769658
H           4.95285673215834    1.69065448432554    0.81044662468659
H           4.67616421571453   -1.97246257361064   -1.35525946944922
H           2.20223411285992   -1.89405140119133   -1.17799087776342
H           7.89589760954429   -4.00852293248307   -0.88202524169688
H           9.82955700068390   -5.50653993071442   -1.29654806571820
H          12.03803810781279   -4.60046234681025   -1.80472093301329
H          12.42585492104307   -2.15941455283982   -1.93250534507359
