33
         -62.914832337405          0.000878364665
C          -1.14879922213975   -0.06404436993676   -0.21665898810378
C          -0.30872024094248    0.99572100721866   -0.01185273264450
C           0.91942685073963    0.40908513116510    0.35508676788777
N           0.83059510596145   -0.89788511200055    0.36869340440597
N          -0.42916375361075   -1.19620630942076    0.02195176513147
C          -0.83435586403104   -2.51993895319214   -0.06477372598171
C           0.10973582817935   -3.52452028233024    0.17484858044343
C          -0.24917843026269   -4.84681170281644    0.08384452335245
C          -1.56584290008932   -5.20276735316349   -0.24679502136657
C          -2.51174463486023   -4.18863707210524   -0.47647844810941
C          -2.15118160880049   -2.86711283358837   -0.38738826940257
N          -1.83392263209307   -6.54281082234395   -0.33169462666706
N          -3.03636111950545   -6.86686860077431   -0.62436325841026
C          -3.26990406886848   -8.20324647753551   -0.68445345858698
N          -4.45108796516264   -8.63991889658933   -1.06153097567893
C          -2.40381664933722   -9.32045957419627   -0.36638388682176
C          -1.11034346130323   -9.58588431440461    0.06858593445816
N          -0.71513847490424  -10.83544814783990    0.22634151185154
C          -1.56988628429361  -11.81711921472266   -0.02940670095132
N          -2.82074097074651  -11.70862417077555   -0.44011785324550
C          -3.20878671034644  -10.45605793775995   -0.60187393643127
N          -4.43503218352614   -9.98946431429250   -1.02053326589560
C          -5.49003104756268  -10.72529339834494   -1.35627142888190
N          -6.38861677160974  -11.37148701629011   -1.64226140980920
H          -2.17693315420723   -0.08142846779070   -0.51128963048639
H          -0.53172468809032    2.03793668281656   -0.10901671692951
H           1.84274184711936    0.89357622541989    0.60235673462696
H           1.11532140373926   -3.22848934896030    0.42655526996636
H           0.47042031910343   -5.63033112661839    0.26185463117050
H          -3.52062593518658   -4.47823543269550   -0.72729641197684
H          -2.89178906714576   -2.10422597815082   -0.56737382325736
H          -0.39587296467023   -8.80430036658776    0.28559093675448
H          -1.20393055154666  -12.82397145139220    0.11695450959057
