24
         -42.295164581503          0.000488023423
C           0.99239691284173    0.05080440809625    0.01205446335680
C           2.48655210081869    0.06445503721118   -0.06193930530119
C           3.19251990606956    1.25964339655200   -0.15847997845532
C           4.56886591035304    1.26378719625753   -0.24018024771726
C           5.27777881504827    0.05851954858858   -0.21015298546433
C           4.57031593512397   -1.14891935349358   -0.11402646802715
C           3.19704423871660   -1.13653917297906   -0.04541383030108
N           6.64805868605325    0.14730693561230   -0.31825732452256
N           7.30442780704079   -0.91834299040185   -0.08403903223066
C           8.65327926903542   -0.83078460938965   -0.26429761543622
C           9.44616783173002    0.18469133226055   -0.86955287758045
C          10.73139891100015   -0.28769627629401   -0.80826444696667
N           9.42706857028550   -1.84745863310127    0.12978578125889
N          10.62514229910656   -1.48434224608720   -0.20159189046083
F          11.67801763291589   -2.30229573314674    0.06914972580442
H           0.59444873539716    1.05832811373623    0.10059878976036
H           0.65965066577448   -0.53577504454487    0.86714772447374
H           0.57642854584770   -0.40854808397832   -0.88465562141303
H           2.65267734910348    2.19577017117738   -0.17207068635772
H           5.12085868333531    2.18826106126137   -0.31188366562197
H           5.12945402725742   -2.07208156989210   -0.10416789330020
H           2.65353396702399   -2.06847952282189    0.02311568470099
H           9.09171285500083    1.10405367076432   -1.28530532884622
H          11.67365034512018    0.10541236461276   -1.12895297135239
