30
         -51.727768859009          0.000742457140
H           1.06265121302074    0.13556972917796   -0.07520031897497
C           2.13882520921316    0.06291682632211   -0.13353942340914
C           2.92978321334637    1.09139151277124    0.35678704078478
C           4.30481643723263    1.00048823815361    0.28550793724268
C           4.90474171811306   -0.12654600080162   -0.28630769973923
C           4.09854261786503   -1.16092792999284   -0.78104059468233
C           2.72627582196589   -1.06073306421416   -0.69947001332346
N           6.28484056380190   -0.11792834505556   -0.31744042281054
N           6.84743637284311   -1.12700769194415   -0.84632847836638
C           8.19055543175782   -1.11084389378786   -0.99980574013546
N           8.94566700352059   -0.02632856104618   -1.14311876052467
C           8.99220053249386   -2.28515091740715   -1.18733556430029
C           8.89274320437858   -3.67215807906687   -1.18438689772628
N           9.95132246886813   -4.41546404012581   -1.41500221437322
C          11.13496401123294   -3.81106843347249   -1.64272185852443
N          12.18137637264215   -4.63278700487514   -1.85052239227650
H          13.07471610088649   -4.24136846940339   -2.08299096728817
H          12.01809385715670   -5.62060601725452   -1.89445878519066
N          11.37309824561487   -2.50036388628491   -1.67032885638525
C          10.28932263171123   -1.76902711311694   -1.43842502701011
N          10.19280837150596   -0.42122102868741   -1.41306709381028
C          11.23771912398201    0.52349089300698   -1.67564138106631
H           2.46814696773190    1.96399232854652    0.79526301048290
H           4.94260561656678    1.78688261248651    0.65786388418652
H           4.57556159873260   -2.02581976611081   -1.21687116768789
H           2.10360537989950   -1.85861815155604   -1.07819578059799
H           7.96277196603064   -4.19447518515796   -1.00426795092899
H          12.14131772617026   -0.03842370498366   -1.90190564039265
H          11.39776482570600    1.15668255685528   -0.80159882523141
H          10.96486539600936    1.15672258702476   -2.52116001793968
