32
         -58.395858460539          0.000561866304
C          -1.10982921975810   -0.07334457759364   -0.32358170744698
C          -0.26332235717505    0.99003847553529   -0.16187356672110
C           0.95837807546846    0.41251318270509    0.23426547000237
N           0.85946168792752   -0.89249940230249    0.30715280686493
N          -0.39957857353587   -1.19708142869745   -0.03227196968575
C          -0.81746714407980   -2.52259163960444   -0.04756145169826
C           0.09597941368521   -3.51458699499542    0.32095486621954
C          -0.28144488083634   -4.83597896711935    0.32466243292065
C          -1.58215150588333   -5.20276486102643   -0.04596818824018
C          -2.49257998220792   -4.20249659276395   -0.42022877261905
C          -2.11690781580602   -2.88029569301989   -0.41833431576996
N          -1.86538911067698   -6.54776758375405   -0.00919277734177
N          -3.03960625223608   -6.89519198778756   -0.33549946246420
C          -3.35196401331261   -8.20518350174323   -0.43036777220016
N          -2.55533822660917   -9.16757424415719   -0.87617551609011
C          -4.67776978725477   -8.72522844302452   -0.23267388652536
C          -5.93685000973053   -8.31859030958765    0.18649290255389
N          -6.93257281054198   -9.18588328924529    0.22057708485543
C          -6.69818952677771  -10.44326206231078   -0.14010614485010
N          -5.56177034853467  -10.96982612800448   -0.55173926086584
C          -4.56258330492412  -10.09574257213216   -0.59326563332682
N          -3.28356253324025  -10.28794992466760   -0.97950025936848
H          -2.86634780354653  -11.12750878926606   -1.34926038372699
H          -2.13863114539372   -0.09640392500445   -0.61583522460169
H          -0.48001235456413    2.02839393958061   -0.30400476891035
H           1.88498146312512    0.89994311442355    0.46284158492127
H           1.09221135743093   -3.21157713866424    0.60002333192283
H           0.41064609059135   -5.61337243138294    0.60658034729949
H          -3.49282819543310   -4.49354624386500   -0.70308294767839
H          -2.83336673192902   -2.12718494982294   -0.70639532856532
H          -6.15890789902559   -7.30328432066578    0.48648954080798
H          -7.54272655521650  -11.11697071003472   -0.08625102967237
