35
         -62.187334156389          0.000635782825
F           1.24060033847507   -0.02910788225812    0.69248738769729
C           2.57285648360238   -0.05403150727226    0.47134946142669
C           3.36662544588976    0.92344013936907    1.05035140656646
C           4.72363881225710    0.90497768368759    0.81034340539716
C           5.28989820530409   -0.09930440638610    0.01518944764308
C           4.46029170750282   -1.07566950346632   -0.55537892283879
C           3.10052256876396   -1.05058653078232   -0.33355894148437
N           6.63879617808748   -0.00676376173252   -0.23596045450411
N           7.23847203499321   -1.07544071100763   -0.59490602362288
C           8.54560222349494   -0.95246924217706   -0.93366396367303
C           9.33596591149125   -2.04187036747146   -1.23821685447287
C           9.39032653883890    0.21375078899716   -1.07383759879281
C           9.16422314257377    1.57507121792194   -0.91385204551473
C          10.21466800298565    2.44181025362998   -1.13831097792830
C          11.46918177261779    1.96930954162309   -1.51763158715929
C          11.71464831786255    0.61941310659311   -1.68532333340315
C          10.66312096716765   -0.25627021388437   -1.45955713403000
N          10.60126178824683   -1.64397320657380   -1.54936233029354
C          11.61919854606397   -2.51107516589894   -1.88875936230588
C          11.61006518508799   -3.87354080800821   -2.04091706930514
C          12.93504962708385   -4.22880241534318   -2.38913112191019
C          13.64406433224066   -3.07104980770804   -2.42344882987883
O          12.85174906793741   -2.02110652182802   -2.11997868032950
H           2.91392905097033    1.68171394124631    1.67007127065667
H           5.37172403782846    1.64874175733473    1.24668276922307
H           4.90978998752123   -1.83181077174225   -1.18111865815858
H           2.44417955610634   -1.78739529737572   -0.77084192123144
H           9.05831706225464   -3.07670904285479   -1.23608794876991
H           8.18777702818872    1.92637148072153   -0.62235925671666
H          10.06629773201994    3.50488070050946   -1.02029124523074
H          12.27032933670386    2.67344188069367   -1.68629608828484
H          12.68939610677542    0.26917580973484   -1.98121417039151
H          10.78041597038981   -4.53818218475586   -1.92496674232978
H          13.30070763188128   -5.21512905375632   -2.58585113565380
H          14.67112930079101   -2.85720989977823   -2.63896275039547
