28
         -52.419536672394          0.000254035753
C          -1.11954268742819   -0.04120905525867   -0.25149565005853
C          -0.26970996041695    1.02011611847030   -0.08824193357442
C           0.96333445450006    0.43541138374053    0.25602010921174
N           0.86831387236147   -0.87198325642290    0.29750679443102
N          -0.39987257132848   -1.16979018331731   -0.01079706372667
C          -0.81604430011905   -2.49673702520411   -0.05296086932679
C           0.12142962040575   -3.49829505684237    0.21426069332855
C          -0.24687191951795   -4.82163419871734    0.16954127481801
C          -1.56858715727884   -5.17908697963412   -0.12733547241846
C          -2.50570324485840   -4.16920744649935   -0.39123645012128
C          -2.13384672585849   -2.84594384918471   -0.35864554397078
N          -1.84637746949823   -6.52461914180289   -0.18612726216303
N          -3.07754407451044   -6.84872243569452   -0.23848677358257
C          -3.32795362782028   -8.18231695890321   -0.36449743264576
C          -2.44760395924637   -9.27818554316178   -0.59065397201017
C          -3.26315853581129  -10.37752456749307   -0.65741872884837
N          -4.59300134674049   -8.61171220272995   -0.30347810572865
N          -4.50505518117159   -9.89156625967584   -0.47478216762948
F          -5.63137383547804  -10.65289095764789   -0.46393932170789
H          -2.15588438501230   -0.05945990118415   -0.51634291758930
H          -0.49202866561332    2.06129934074598   -0.19798284579609
H           1.89589573058966    0.91827622254898    0.47000574829470
H           1.13117293342605   -3.20222118913194    0.44872744307646
H           0.46757625271099   -5.60330228641135    0.37439516038876
H          -3.51782391062656   -4.45909476068088   -0.62829043577970
H          -2.86954011953022   -2.08599562290723   -0.57014517129151
H          -1.38414892031183   -9.22874502525763   -0.69067191818831
H          -3.07702026581674  -11.41989916174268   -0.81194718739158
