32
         -54.613248923770          0.000932380641
C          -0.91687873128485   -0.88759269737461    0.67515879775102
C           0.35534590594799   -1.23007681874652    0.51429473103828
S           1.56031470737704   -0.30523408452299   -0.39313628112443
C           0.51778400324873    1.04821056967883   -0.85450188914050
C          -0.76618473804847    1.17276457430300   -0.54215906275645
N          -1.52770727778183    0.26280029864310    0.18491776183216
C          -2.87859331727144    0.49766030207880    0.41989976934806
C          -3.79292380912740   -0.56365200314295    0.43617868603679
C          -5.12851411487013   -0.33173782980625    0.65797463909296
C          -5.60217588760739    0.96642525353792    0.89017303470509
C          -4.68322273988902    2.02870553812411    0.88010752341468
C          -3.35147772277296    1.79846144501219    0.64295491527740
N          -6.95425914807293    1.10239500942264    1.07594412391773
N          -7.36637860400326    2.26159605187889    1.43305647820124
C          -8.71431131672091    2.39067874562316    1.54750756303406
C          -9.76649862587954    1.51218570745668    1.16634579095115
C         -10.91463533698510    2.18971491754566    1.47510792303902
N          -9.22368773556113    3.51484959688806    2.06458858003211
N         -10.52894547761142    3.37167514218369    2.01182572681735
N         -11.37560386057471    4.38077048295268    2.43217184310327
H          -1.55843926961063   -1.51047220704392    1.28061032516515
H           0.75689428737554   -2.12418676602860    0.95624089595670
H           1.02646838814577    1.78654845666178   -1.44771957556890
H          -1.31823618631939    2.02429556435660   -0.91062103736419
H          -3.45310846072123   -1.56892353510427    0.23523065700714
H          -5.83721567282696   -1.14529844542096    0.65374861557958
H          -5.05233543260956    3.02504807768718    1.06871523200141
H          -2.65680862596847    2.62573952589820    0.66482130453694
H          -9.65617279656293    0.54582042511456    0.72173367483370
H         -11.95083532297702    1.94144916070564    1.36755522404433
H         -10.81729963710250    5.22407195025520    2.54432667643559
H         -11.80887744333365    4.14829759118225    3.32600735280176
