30
         -52.024420797817          0.000473123445
C          -1.17285586318445   -0.03909457271029   -0.28198671163291
C          -0.28405698055573    1.03629094867454   -0.07496156458835
C           0.89803570008172    0.47553963045049    0.30438729100131
O           0.80015091928300   -0.85948387924595    0.34499267457688
C          -0.46538578131988   -1.18834703742374   -0.01210508153077
C          -0.84655373176177   -2.58194424166793   -0.05142298432061
C           0.09339577238626   -3.57689275320831    0.24441079143161
C          -0.25372757829724   -4.90602718191374    0.20047997069854
C          -1.56366184546412   -5.28501314408285   -0.12005586910374
C          -2.50738534505894   -4.28966713130059   -0.41826976103300
C          -2.15145779709949   -2.96356740478026   -0.38787375175102
N          -1.82271632588931   -6.63295877165584   -0.18909436952211
N          -3.04985928084982   -6.98047133416631   -0.16832927046530
C          -3.28998013183538   -8.31192511362570   -0.30250181184455
C          -2.40255023161530   -9.41081457014686   -0.46767191735373
C          -3.21718737026549  -10.50882325911036   -0.52739986791901
N          -4.55554965413533   -8.74707273290122   -0.28279796007480
N          -4.48680064289041  -10.05025092752986   -0.41413518135089
N          -5.62466382308199  -10.83294770713854   -0.37688201077751
H          -2.19539307160267    0.03273203379013   -0.59005967016501
H          -0.49439200589803    2.07967686924243   -0.19205183688041
H           1.84523713460005    0.90648573803057    0.56307404965592
H           1.10001758798923   -3.28491888179319    0.50303378910647
H           0.46603957173931   -5.67700729842741    0.42914476160476
H          -3.50851102716342   -4.59801549029264   -0.67943331756890
H          -2.88346807162553   -2.20592986974793   -0.62190038730892
H          -1.33561700221787   -9.36272723102169   -0.52229781689152
H          -3.01400194138951  -11.55393627932152   -0.64064462896265
H          -6.38751417304485  -10.25432840273034   -0.03412069174356
H          -5.86219700983304  -11.18534000424539   -1.30298686528579
