26
         -53.847033960786          0.000991641485
F           1.09897773943150   -0.10871985216562    0.44484632204043
C           2.42282882970768   -0.11304050419225    0.22413793807699
C           3.20435724315964    0.86253504462711    0.82545170437269
C           4.56237885680398    0.85987185361049    0.59182521293405
C           5.13491690087638   -0.11966592618725   -0.23082539907375
C           4.31884511481997   -1.09582081669350   -0.82611690336418
C           2.96169501747562   -1.09158256389608   -0.60105076561395
N           6.49496204203444   -0.03580391498601   -0.41507867083600
N           7.03613880392426   -0.97686501122775   -1.08272696648021
C           8.38426954203494   -0.88926121573441   -1.22610495234235
N           9.00774853567581   -1.73528730895719   -2.01627934541838
C           9.33842012670258   -0.00327521636555   -0.59309386960646
C           9.38687079995437    1.06043967259758    0.30171588385801
N          10.54802756319439    1.60863064503984    0.60497471228418
C          11.65288895548285    1.12230688304124    0.05467319052763
N          11.75217878304152    0.11672195461013   -0.79600764965808
C          10.58614249096776   -0.42239708770592   -1.10380288559015
N          10.32832273783157   -1.47056870206671   -1.95964689888569
C          11.22455775666434   -2.15720589676406   -2.66317359601567
N          12.00707351395558   -2.73814581905269   -3.26010418884215
H           2.74034461058521    1.60228702679535    1.45840885912398
H           5.20340365807649    1.60191326643270    1.04100324159764
H           4.78165329733005   -1.83370867263275   -1.46322578082314
H           2.31219766823713   -1.82715011542183   -1.04923128352019
H           8.50268343444264    1.47341423145629    0.76647203769785
H          12.58101597758892    1.60041804583889    0.33586005355682
