32
         -57.933459190462          0.000406044838
H           1.28354649079861   -0.21272638357009    0.72486816353910
C           2.35297710057347   -0.21540823976716    0.57398038893755
C           3.13157206810488    0.79143543145508    1.12641274558980
C           4.49677518197128    0.79725892269664    0.92938633857268
C           5.09992764790771   -0.22096485130649    0.18143964848206
C           4.30686618740188   -1.23653344457305   -0.37197031724352
C           2.94334355556637   -1.22527273219295   -0.17459663205967
N           6.46162903707058   -0.12102101317521    0.00378953619952
N           7.04450334294807   -1.13395195546796   -0.50843905572228
C           8.35925140491490   -0.98336448829411   -0.78974038752501
N           9.09445945605096   -2.03638617515616   -1.10882056307776
C           9.16141244357623    0.21150394118559   -0.89020725655277
C           9.05525751582133    1.58776991883987   -0.73142255985167
N          10.10806739037653    2.35682266466513   -0.93930017579245
C          11.24949534234898    1.78973714917293   -1.31396175273768
N          11.48824338405664    0.50853652642081   -1.51666696041504
C          10.43219343186769   -0.26487362094252   -1.29520765311389
N          10.32774216912479   -1.62245339383287   -1.40399844395595
C          11.31088889309256   -2.51858222415217   -1.75967108171546
C          12.61470035746666   -2.25214180710881   -2.06991892103556
C          13.32229996460730   -3.42863286801417   -2.38770430349574
C          12.55249062983566   -4.54622659187935   -2.31230570803648
S          10.93070948179784   -4.20442477201414   -1.85032844134472
H           2.66704031088700    1.57375537307258    1.70824343821574
H           5.12163066087841    1.56946945208412    1.35096602445217
H           4.78985524330650   -2.00771999875467   -0.95259464170271
H           2.33021072599946   -2.00453950494653   -0.60337462420332
H           8.13450762124227    2.07189195668984   -0.43694246543965
H          12.08299665418820    2.45971092830314   -1.47640178622719
H          13.02730015490542   -1.26074048955728   -2.06694811641436
H          14.36190653613066   -3.43893463465036   -2.66022955976616
H          12.83914961518188   -5.56132307522945   -2.50111487655844
