29
         -48.825583640527          0.000565287414
H           1.26680685281197   -0.08836032783509    0.81081755135263
C           2.33079240325154   -0.12939417854722    0.63047110641505
C           3.17987547855364    0.74649588389127    1.29198275324612
C           4.53742735900399    0.71140215424684    1.05204626984713
C           5.06603673462161   -0.22740182644193    0.15873219002502
C           4.20292775033476   -1.11115287268058   -0.50266010917176
C           2.84576985966655   -1.05244754408821   -0.26851851980996
N           6.41775632409524   -0.16086149441444   -0.08823893142818
N           6.97513090534895   -1.20587051012442   -0.55592971557604
C           8.28641235082318   -1.08584559260303   -0.90331230311910
C           9.04606266856031   -2.16495474811902   -1.28508077602961
C           9.13714147811992    0.08608929217755   -1.00483467859640
C           8.94096438968089    1.44167315259378   -0.77182749872373
C          10.00171525290444    2.29930689574805   -0.98952093668769
C          11.23835231576707    1.83263620628157   -1.43182152475833
C          11.45550721028423    0.48847553746422   -1.67275627296662
C          10.39063983205079   -0.36686697388162   -1.45247272631609
N          10.31488863655342   -1.75051462430293   -1.61180299053859
C          11.30565186458998   -2.52697059778444   -2.01294907446852
N          12.17036759539408   -3.18976226714657   -2.36803351649651
H           2.77512461641494    1.46371870576694    1.99094936720686
H           5.21294982152104    1.38307496547423    1.55960362341323
H           4.62510645414131   -1.81419073605744   -1.20520942632801
H           2.18050408581892   -1.72760468815827   -0.78714160014950
H           8.77314566417573   -3.20134687755888   -1.33392255660424
H           7.98227837746742    1.79740018768556   -0.43097812427071
H           9.87408503726302    3.35706559817273   -0.81482968346980
H          12.04278602532941    2.53423648991262   -1.59189393351274
H          12.40884265545039    0.11858079032991   -2.01862796248555
