29
         -53.595959769665          0.000598417998
N           1.48077837180792    0.24710263723574    0.88168653149047
C           2.61783636404033    0.16196535465903    0.76057113277986
C           4.01862039850348    0.06206648496986    0.60900273663281
C           4.86513150601315    0.67292825549113    1.54073751522667
C           6.22882764426234    0.59041501072150    1.38360180606178
C           6.77111009863196   -0.12610684811808    0.30734720616687
C           5.91623048332003   -0.73794871632861   -0.62313059219385
C           4.55282020958472   -0.64060824652561   -0.47618005438480
N           8.13564466537028   -0.09901620634525    0.15983243364341
N           8.67571378881289   -1.04843278064545   -0.48154137558536
C           9.98297050122182   -0.92345928455776   -0.81175074564356
N          10.68902254663691   -1.99755870940904   -1.10648988733741
C          10.76682846133748    0.27486715869748   -1.03250473169309
C          10.54368601405199    1.64182234661848   -0.91603359222936
C          11.58465955849093    2.48646061364386   -1.24056847737231
C          12.81773882046862    1.99640760352832   -1.68109189143427
C          13.05652735783102    0.64354437414835   -1.81520896668237
C          12.00989322803541   -0.20263992375529   -1.48289170871435
N          11.90696636226716   -1.58551854133172   -1.49705024440932
C          12.87778446408109   -2.42042188244260   -1.83874604031175
N          13.74551823884685   -3.10056386933130   -2.14719216331822
H           4.43776800296613    1.21158752818727    2.37333832951402
H           6.89993632092726    1.05042365436247    2.09225193745880
H           6.35544931587711   -1.26849917353130   -1.45437296849141
H           3.88719231069977   -1.10503130447901   -1.18899967830895
H           9.59019632149585    2.01395021876927   -0.57642056892739
H          11.44948808479365    3.55380868030519   -1.15424341214793
H          13.60153610557177    2.69637371648348   -1.92683853108524
H          14.00203445404884    0.25895184898040   -2.16375399870694
