26
         -46.712307032682          0.000325015820
C           1.39409411752127    0.13453818709032   -0.47118498221834
O           2.60904921947686    0.07127807435154    0.23958876287085
C           3.16565394913088    1.21407715159623    0.69644446656274
C           2.63283732879225    2.49175941777205    0.51650550058039
C           3.28857139843149    3.58850341411809    1.03265761138434
C           4.48604308065997    3.44172150664095    1.74026513004620
C           5.02057991505720    2.15219248967282    1.91541530105094
C           4.37011045638580    1.06243867645334    1.40124035888825
N           5.05680102665186    4.59482702833653    2.21812269931827
N           6.12070459976476    4.46138245935275    2.90672308004530
C           6.71801567364492    5.61590848683482    3.31221281690725
C           6.59632099371249    6.94449531512125    2.77986695835469
C           7.47265557888325    7.68959774124203    3.49889968699405
N           7.61531315057585    5.58301322578570    4.28201614789016
N           8.06690759471629    6.83782151656048    4.40369690864979
C           8.97692673563304    7.19279487951130    5.30215445987059
N           9.75778649293551    7.54108070620893    6.06297619678640
H           1.14698563653029   -0.89558800760731   -0.72200249875932
H           1.49869379801209    0.71622072515836   -1.39200991557907
H           0.59346439532570    0.55996394227772    0.14126509290361
H           1.70952991032103    2.63501894292752   -0.02254457438603
H           2.88460034530934    4.58046205352044    0.90137584244560
H           5.94492177287764    2.04954874775360    2.46270742104416
H           4.76112108566664    0.06451313027653    1.52479443813525
H           5.95319413494665    7.24527484136353    1.98007883030332
H           7.73459760903362    8.72850534768356    3.46913425991195
