36
         -64.758134987247          0.000662239294
C          -0.90676857193941   -0.88795918092031    0.70011198650794
C           0.34806580157836   -1.26875662865097    0.49120974785799
S           1.51994561416701   -0.42143134252952   -0.52359215469693
C           0.51017665744566    0.96957450309411   -0.93269622998309
C          -0.75659561634523    1.13708954126125   -0.57158814669977
N          -1.51871237530563    0.25091938375301    0.18391377962259
C          -2.86129825714169    0.49954952335666    0.43532200258848
C          -3.77200654951297   -0.56251472557417    0.53348838987528
C          -5.10120061639543   -0.32481863046931    0.77843841875317
C          -5.57913950349557    0.98448940636555    0.93920389134753
C          -4.66341970193678    2.04844646582270    0.84736608739405
C          -3.33682481433032    1.81006463425760    0.59880177912373
N          -6.91522566067146    1.12332474909438    1.18703780109016
N          -7.35258386284552    2.33038486103502    1.29458401468813
C          -8.67604273765473    2.43879087801289    1.53478812783899
N          -9.22556603319200    3.64264823367307    1.69255972396417
C          -9.70039338379448    1.43250543538410    1.63622749666947
C          -9.87442397619239    0.05599226348624    1.55435235329636
N         -11.07939169631758   -0.46707816553254    1.68921145406558
C         -12.11415280504578    0.34433514676906    1.89382860522977
N         -12.10579868520485    1.65759966675349    1.99249503668629
C         -10.88598462983530    2.17762111690082    1.87196574017370
N         -10.52266486779897    3.47948400683973    1.89776046274211
N         -11.33535569995219    4.55409395578626    2.19358347241081
H          -1.52616012602347   -1.46168303634933    1.37312232920535
H           0.75425824531650   -2.14574173748971    0.96231815832238
H           1.02213152440526    1.69738841142835   -1.53615836721864
H          -1.28894506086784    2.01113858501531   -0.91387726948628
H          -3.43399436488033   -1.57614425086495    0.37740668490583
H          -5.80450530767845   -1.14087754081751    0.83565476211465
H          -5.03317248267824    3.05166986229173    0.99360422897963
H          -2.64739743562803    2.64109380188647    0.56857352867814
H          -9.05365272969478   -0.62463321107327    1.37719754986779
H         -13.08040108799312   -0.13374207122508    1.98460948263180
H         -12.27054974316973    4.38729826449182    1.83327355799695
H         -10.92020945939058    5.40127782473697    1.81765151345554
