34
         -61.862595138726          0.000283306428
C          -1.14065082747158   -0.07203810752231   -0.06776655959121
N          -0.33601983069297    1.01250800995273   -0.04258854108737
C           0.88448213354348    0.55102286169788   -0.01000590543033
N           0.91151802213042   -0.79973535383014   -0.00401569974337
H           1.72922300107220   -1.38621908116134    0.00186350025094
C          -0.39280490731839   -1.23489563135426   -0.04560008599694
C          -0.78706450463081   -2.62253556429150   -0.05008708351662
C           0.13001587911805   -3.64889638799581    0.20978289105987
C          -0.26601837095357   -4.96589416471302    0.20746785049599
C          -1.59567155627325   -5.30684033314548   -0.06650289003201
C          -2.51995268157039   -4.28200741599131   -0.32663570360909
C          -2.12042181440513   -2.96915702047004   -0.31367821567077
N          -1.89202517237265   -6.64985644579594   -0.04344447086843
N          -3.07964644470976   -6.97403355045663   -0.35539961579523
C          -3.40517471806398   -8.28145391886330   -0.45379590152613
N          -2.59631245008643   -9.25868413160339   -0.84464093632884
C          -4.74462095619983   -8.78089249675816   -0.31929052379953
C          -6.01824650494896   -8.35322870697434    0.03784846685161
N          -7.02829901852391   -9.19368937684964    0.02882438013966
C          -6.80394082744458  -10.47621580120091   -0.32001900552053
N          -7.88200092816098  -11.28090056553520   -0.31935658234714
H          -7.77159979555836  -12.25231730647725   -0.54097011355869
H          -8.76721746441667  -10.90563897973007   -0.03574559648053
N          -5.63644960963197  -11.02091214541463   -0.66669746633335
C          -4.63384398081870  -10.15445589311456   -0.65774085415818
N          -3.33721233845335  -10.37064282478336   -0.97014362831034
H          -2.91591129508554  -11.21964742807221   -1.31122439209748
H          -2.20514521137438    0.04430070959539   -0.08598719587344
H           1.76781387431616    1.15752819101678    0.01112983542188
H           1.16155413177205   -3.41521209442464    0.43224036634450
H           0.43569116960921   -5.76050276138390    0.40790681791758
H          -3.54490710617972   -4.55269203430591   -0.53036181836191
H          -2.83488260661540   -2.18677579448392   -0.51748149014829
H          -6.23675728960075   -7.33408845555937    0.32726616770412
