37
         -60.999168745367          0.000377119288
C          -0.60756565032068   -0.11250563632475   -0.57361507358152
C          -0.01438846621604    0.97334701915807    0.01729580772762
C           0.55808943766589    0.46347472095216    1.19475080046899
N           0.32996157766720   -0.82484950933751    1.30894783905926
N          -0.37951196921339   -1.18020427590329    0.23310536798546
C          -0.78873555832754   -2.50390347749158    0.06664201655110
C          -0.48579172137566   -3.42835676785906    1.06757821401825
C          -0.87624698489621   -4.74070675943742    0.94042485163282
C          -1.58477319332590   -5.16714689598764   -0.18967709859516
C          -1.87940673342721   -4.23276031931720   -1.19279160765265
C          -1.48665110921443   -2.92040090854364   -1.06776703974599
N          -1.92512005582569   -6.50080465317396   -0.23522859026470
N          -2.63364987454168   -6.86471536875175   -1.24255694748749
C          -2.95975608531865   -8.17314730049731   -1.31403732919065
C          -3.69898171353917   -8.69459570745721   -2.36966234954712
C          -2.66989882097125   -9.28656135485013   -0.44221355232998
C          -1.97430698700654   -9.42180376964184    0.75452479314250
C          -1.89435522971953  -10.67486943155458    1.32568224949592
C          -2.49353704768495  -11.78750847858509    0.73185375909954
C          -3.19084560509464  -11.68048788307439   -0.45404323834347
C          -3.27133456388676  -10.42084124766582   -1.03144529204068
N          -3.87425389834823  -10.01918525169203   -2.20105852682339
N          -4.61756454586259  -10.86507865489187   -3.02154507531713
H          -1.16175009063863   -0.18245514449087   -1.48618132971680
H           0.00680989991446    1.98278782395163   -0.33849364560185
H           1.11713452739889    0.98338592152240    1.94713128516571
H           0.05828557929819   -3.08494952834967    1.93273738494950
H          -0.64795475735136   -5.46155975224673    1.70987718269245
H          -2.41913388455290   -4.56891652569060   -2.06491494154221
H          -1.72260725352933   -2.22197873527925   -1.85591503511776
H          -4.10213945881762   -8.17561674836317   -3.21855396568629
H          -1.51602986226564   -8.55793967889447    1.20752182097093
H          -1.35901445690473  -10.80480421465360    2.25456158543609
H          -2.41072182971980  -12.75095163804848    1.21251565955811
H          -3.66566370849229  -12.53767731464876   -0.90695166716317
H          -4.06247121271374  -11.67695416302246   -3.28480783080206
H          -4.90496869284180  -10.36311838985830   -3.85635048140525
