31
         -51.404990654356          0.000485289039
N           1.07142894665368   -0.40948820288961   -0.55258955858062
C           2.42709980551875   -0.36036929841284   -0.74839099808339
C           3.08755719321187    0.86931903884842   -0.85322020831322
C           4.45361600975247    0.91863326313928   -0.98743146375845
C           5.21194760650452   -0.25989915002032   -1.02161302789884
C           4.54669190048528   -1.49372015433886   -0.91750632066851
C           3.18278985323443   -1.54023901669589   -0.78476640135514
N           6.56812115849976   -0.11227569310249   -1.15929520519496
N           7.25738162218554   -1.19464160716083   -1.18463482019370
C           8.59618616767395   -1.03388608134752   -1.30836796039315
N           9.36841379744647   -2.11148619941708   -1.40488465073684
C           9.41534473420461    0.15188659970380   -1.34740108953379
C           9.19076926214614    1.52544808162310   -1.29884352442646
C          10.28553830944599    2.35730809030028   -1.37214040621439
C          11.58795085037638    1.85325992238162   -1.48674937435304
C          11.83899540009096    0.50081493892026   -1.53225295531674
C          10.73406570797284   -0.34122365382736   -1.45991444781930
N          10.62553718088910   -1.69958276047741   -1.48772850728510
N          11.67598644509150   -2.59597219579621   -1.57524265277522
H           0.53712455440673    0.41703708135331   -0.76015148818486
H           0.60763466507621   -1.28777630833218   -0.71133246238968
H           2.50760028324896    1.78125268924055   -0.82657962550808
H           4.96531730011479    1.86512889663770   -1.07063750891956
H           5.13857512499233   -2.39559047965585   -0.94944451670444
H           2.67295940815512   -2.49078413110703   -0.70617958749797
H           8.18591671962855    1.90474311330914   -1.20919134833376
H          10.14552187205417    3.42789484962102   -1.33998712412388
H          12.41348010644974    2.54794470456475   -1.53957605124149
H          12.83806252491909    0.10271138636410   -1.61290053666677
H          11.93977874139062   -2.75245872906081   -2.54899400757111
H          11.36625674817943   -3.48103899436499   -1.18060216995749
