37
         -65.325688534103          0.000573118435
C          -1.00247809022583   -1.00042014221764    0.32995077608809
C           0.26007651558951   -1.35744169758807    0.12486806408445
S           1.54712315043731   -0.29599827184952   -0.45171775758376
C           0.58895388789934    1.17994946391157   -0.58768516622438
C          -0.70225174487419    1.29248160342646   -0.29861519812909
N          -1.53837868988179    0.27157318526114    0.14644838661144
C          -2.87913555821502    0.51706613588319    0.39704268714942
C          -3.84637181035798   -0.47335264737991    0.16577163151694
C          -5.17384685551490   -0.22533370286247    0.40790390055873
C          -5.59387542915724    1.02040401713434    0.89807456722269
C          -4.62332741987398    2.01026282847373    1.13877686119228
C          -3.29914729489167    1.76394536989823    0.89055305323654
N          -6.93517398457252    1.17707021578723    1.10571291255240
N          -7.31335787390555    2.30406611530843    1.57973854246223
C          -8.64200592619137    2.53015990647550    1.65871331934190
N          -9.11992117726308    3.43321906264558    2.49105661780692
C          -9.70340407345033    1.99790848034494    0.82389040241843
C          -9.77763449533374    1.06894153628676   -0.20570335643703
C         -11.01713839387012    0.83281846621942   -0.76387635938469
C         -12.15858117974347    1.50803825890912   -0.32368519094477
C         -12.10403584322839    2.44476463115906    0.68916236276152
C         -10.85806888516843    2.67423965824515    1.25172328216253
N         -10.45244794552383    3.52467954054892    2.26787350860145
C         -11.24746220677630    4.32078537792013    2.96107071418485
N         -11.97762417195376    4.99486843285820    3.53208139643314
H          -1.69588528277454   -1.72734820126818    0.72520247981986
H           0.59728991123633   -2.35948730734170    0.32211217142159
H           1.15421583773643    2.01737243375790   -0.95557193276331
H          -1.19516078696327    2.23880962346455   -0.46027490962587
H          -3.55344979514308   -1.42808956215453   -0.24438345851354
H          -5.91920349647284   -0.98091305969112    0.21369961879890
H          -4.94937893775614    2.95754763276456    1.54003004884217
H          -2.56819507514917    2.52561320119771    1.11851014469206
H          -8.89027982925147    0.55444623842134   -0.53890403417246
H         -11.11390248863114    0.11060254542046   -1.56063495326711
H         -13.10738690695690    1.29357801063013   -0.79206030144830
H         -12.97989765411502    2.97646261953987    1.02711516901395
