29
         -51.952321512102          0.000808452470
N           1.16520366523161    0.00166120040265    0.42633517028244
C           2.51363342918125    0.00999763002006    0.21383745006999
C           3.33690093772125    0.91345350617952    0.89958467222482
C           4.69782090786344    0.88575514238358    0.72667496575259
C           5.28993420312363   -0.04519916425210   -0.14090087049393
C           4.46163960491311   -0.95074175849036   -0.82949189482982
C           3.10326790365569   -0.92170715129462   -0.65404169016507
N           6.65136719576157    0.00207000534583   -0.24866202821121
N           7.19419347358509   -0.84700573351401   -1.04715267972886
C           8.54250325289690   -0.77414632714801   -1.12537755385817
N           9.20480968553836   -1.60134248772298   -1.93072564897117
C           9.47792272140155    0.09941213261453   -0.46794619088396
C           9.51802997263040    1.16367753438060    0.42515061180765
N          10.67359226739422    1.71994136540890    0.73985672153765
C          11.78724317825395    1.24738950470377    0.18457521712069
N          11.90714602765602    0.25230006455705   -0.66929559069246
C          10.74012341138753   -0.31302881119816   -0.97301118816103
N          10.49711210187883   -1.32850433622042   -1.83010543870653
N          11.43685513352528   -2.09727961065028   -2.48754981252258
H           0.74606676992163    0.78715962080360    0.89256672938351
H           0.58133114283395   -0.52242463317257   -0.20117588739779
H           2.88445919153832    1.63203800935691    1.56831519391525
H           5.33622366956109    1.57912785227558    1.25191682665222
H           4.92767459297818   -1.66082131623691   -1.49521474879473
H           2.46801472264846   -1.61852342403775   -1.18333906598845
H           8.62807385720809    1.57210845394000    0.88285881816034
H          12.70522856741152    1.74604844989428    0.46633554070483
H          12.22765209823835   -1.51797955691509   -2.75547202445169
H          10.99818631406026   -2.54275616141362   -3.28825560375477
