31
         -55.724293932589          0.000447250480
C          -0.53048421748858    1.12108658870897    0.68725319532611
C           0.78171013446573    0.94426022189687    0.58644138695811
S           1.57724430880733   -0.42567686151264   -0.19304019538958
C           0.12337338961039   -1.23029608868745   -0.78726417264248
C          -1.12428355803548   -0.84857936802672   -0.53994934385312
N          -1.51436551815724    0.26091149754725    0.20624282044224
C          -2.85677237609704    0.50426826863320    0.45028019566701
C          -3.75507286395096   -0.56379173300722    0.60250169721391
C          -5.08407152966365   -0.33220431811266    0.85199836748428
C          -5.57549055628583    0.97715371397941    0.96401858531084
C          -4.67757119641969    2.04790804090372    0.80050531298964
C          -3.35089790659078    1.81562709053430    0.55022851517443
N          -6.91272950652971    1.11385265764499    1.20847640477318
N          -7.33116629460279    2.30175421646973    1.44345249745097
C          -8.67489622841720    2.43245412389285    1.60176182872887
C          -9.73657554326009    1.54224204515620    1.21803125004496
C         -10.87738186400613    2.19769658832013    1.54536549813548
N          -9.16596535310719    3.54586751574480    2.11933040667518
N         -10.49848547105272    3.40398510749639    2.09335151785818
C         -11.33124691159992    4.32759652948205    2.55406951298028
N         -12.08428896619846    5.09690209233821    2.94374586787116
H          -0.90322614865768    1.97975565534242    1.22362584840348
H           1.47533827661795    1.65164033789853    1.00429774579414
H           0.33541703991109   -2.08134089225431   -1.40940120400273
H          -1.93972704284702   -1.39366776121160   -0.99106340257629
H          -3.39255019422989   -1.58008870210590    0.56483235903750
H          -5.76944447178886   -1.15365645545079    0.99126037379008
H          -5.06640278359485    3.05270984768265    0.86223607271443
H          -2.69036023502813    2.65497837601284    0.39070297267397
H          -9.61884955794727    0.58089545170072    0.76458682125492
H         -11.91348685387524    1.93912621303372    1.45192126372133
