41
         -75.520169799825          0.000510751240
C          -0.67147122504845   -0.15175350159814   -0.32316756231393
N          -0.00273883546841    0.91507806606895    0.16550202951905
C           0.72076154514544    0.46175253192061    1.15266408468493
N           0.54491264533630   -0.86495071164403    1.33680742568557
H           1.00132592169152   -1.44474693021085    2.02078206806543
C          -0.35345657018697   -1.29440666405971    0.38759825374183
C          -0.80978156154865   -2.65649304912679    0.25787388231557
C          -0.52928933664566   -3.62247877620077    1.23293784749758
C          -0.98595855803043   -4.91260226265479    1.10006813804399
C          -1.73229012963006   -5.29003776884777   -0.02303684463078
C          -2.01289112275511   -4.32651507759707   -1.00610678400929
C          -1.56330965962183   -3.03806129624726   -0.86213828995177
N          -2.15965347327092   -6.59512620515857   -0.05404657953351
N          -2.76934563609320   -6.96845785939184   -1.10662617988479
C          -3.13152478476557   -8.25999724944366   -1.23710407159980
N          -2.50249113713689   -9.30551129305164   -0.71501261178632
C          -4.17583234890923   -8.70734410103963   -2.11505426535421
C          -5.17559239701963   -8.19485632173560   -2.93412998524563
N          -5.97291792906355   -9.00256675156290   -3.59588063520019
C          -5.80897383210803  -10.33303352758612   -3.45481455033634
N          -6.65134090020575  -11.10964829460005   -4.15785119086809
H          -6.57601834047775  -12.10652578167249   -4.08124647511279
H          -7.35184256423977  -10.67581823923226   -4.72900802916816
N          -4.90344936894207  -10.95180039415624   -2.69541669912296
C          -4.10824656699374  -10.12000027761973   -2.04462478380961
N          -3.07548093824976  -10.42079596844125   -1.20319473476020
C          -2.58089433632326  -11.65837847805598   -0.85628893169454
C          -1.54906320747168  -11.97814804691447   -0.01509910147501
C          -1.48787806209627  -13.39103050253151   -0.02518933501711
C          -2.47663149479915  -13.81008568598025   -0.86083757425045
O          -3.14771215267867  -12.75876801747462   -1.37257374558304
H          -1.34973822882189   -0.03538466152431   -1.14374391092440
H           1.37761151939920    1.05747087465356    1.75457913715830
H           0.03761064617712   -3.35910935396711    2.11468817739559
H          -0.77543699766929   -5.65919271234254    1.84987437363580
H          -2.59438328346483   -4.62311382229491   -1.86579781927198
H          -1.78238295879766   -2.30355175765590   -1.62150724427447
H          -5.33768873321983   -7.13376161957566   -3.06712107184073
H          -0.93609719154213  -11.28728167779646    0.52283732111633
H          -0.80059428347482  -14.00585686896461    0.51825807151284
H          -2.79755413097858  -14.78564996468168   -1.16536180335292
