41
         -75.867599147360          0.000492809957
C          -0.46818253134978   -0.18129375437719   -0.45078783629709
C           0.11595468027357    0.89372588273746    0.24942798849292
C           0.49236015325995    0.39057301889298    1.45878561889412
O           0.18327138677934   -0.90805658235497    1.55108174708892
C          -0.40679473926946   -1.27257338918198    0.38668494481990
C          -0.85450232871572   -2.63595274055944    0.22202202152711
C          -0.68275139224005   -3.56177287432271    1.25874698636050
C          -1.12526743865320   -4.85568570155738    1.12255518932558
C          -1.75153473027571   -5.26991833999302   -0.06066751187910
C          -1.91145013672387   -4.34636225303113   -1.10735555226077
C          -1.47288240199418   -3.05345312986575   -0.96459454603888
N          -2.17901272199314   -6.57521195686990   -0.09101892585425
N          -2.76251689980972   -6.96006286100256   -1.15434508363386
C          -3.11784535077860   -8.25435199258624   -1.27957365203926
N          -2.48875724227793   -9.29403026995946   -0.74690287697892
C          -4.16117523068411   -8.71099624548159   -2.15395578396203
C          -5.15899050192694   -8.20706817747639   -2.98038861945483
N          -5.96178793206321   -9.02130040643750   -3.62768156103860
C          -5.80502319137330  -10.35008712743752   -3.46377613017790
N          -6.66728368787122  -11.13290473214516   -4.13576978865928
H          -6.57473803410337  -12.12933746294726   -4.07316622814675
H          -7.34200428000705  -10.70417040343654   -4.74070374566265
N          -4.89551767682407  -10.96113392704540   -2.70328855468062
C          -4.09543135212253  -10.12295767796503   -2.06641126390012
N          -3.06152489659182  -10.41478036523022   -1.22368719206515
C          -2.56622157715523  -11.64778740230011   -0.86162259960699
C          -1.53657039175101  -11.95583950527465   -0.01353215976443
C          -1.47249354206564  -13.36864565550420   -0.00753586924180
C          -2.45754257295384  -13.79922911505230   -0.84162775258361
O          -3.12908269108213  -12.75503395107654   -1.36760682381515
H          -0.87749622805586   -0.14693024580260   -1.43913175013039
H           0.23828445494889    1.89946357566567   -0.09663781269612
H           0.97085814902534    0.84289766610141    2.30502367275378
H          -0.20139589440495   -3.24220178856960    2.17040256006992
H          -1.00193563068171   -5.57651526469650    1.91561333175056
H          -2.39352072025221   -4.67636453512066   -2.01523824742182
H          -1.60595966677987   -2.34861261521913   -1.77076243244978
H          -5.31420976795311   -7.14737469394240   -3.13195334231381
H          -0.92696529237065  -11.25765774229086    0.51876000855872
H          -0.78570804694549  -13.97565895029956    0.54524815434963
H          -2.77552210418674  -14.77885630698511   -1.13596858123468
