35
         -62.734361463949          0.000851628799
N           1.39845583962493   -0.19190335321711    0.82896916994691
C           2.53572668105373   -0.19438499455327    0.67693554268723
C           3.93406270107017   -0.19772131100875    0.48999255264498
C           4.73220303197389    0.72225669796458    1.17957058495506
C           6.09346575879600    0.72796081837169    0.98862780346215
C           6.68926120870002   -0.20008120038475    0.12238553719995
C           5.88173261270925   -1.11958023793833   -0.56691554683691
C           4.51937348497691   -1.11639303083048   -0.38764593923217
N           8.03557092029819   -0.08318824594879   -0.10284560736986
N           8.66007284370612   -1.12592452227173   -0.48683509984423
C           9.95116918341135   -0.95550412365354   -0.85077879810494
N          10.68100830965481   -2.02405694062990   -1.14272803979272
C          10.73882076815685    0.24103564797043   -1.03350344675144
C          10.51204389248315    1.60649294937904   -0.89569340029618
C          11.55551187143884    2.45959801422641   -1.18283652680049
C          12.79981143106430    1.97737073348291   -1.60134485693350
C          13.04618557024473    0.62856857710871   -1.74810504678142
C          11.99698707686989   -0.23461768037633   -1.45747331490564
N          11.89187525758911   -1.61034614004047   -1.49847044709086
C          12.84651979507695   -2.54183825855850   -1.83844841753040
C          12.75046962323117   -3.90753903081217   -1.87238051986970
C          14.02387856597558   -4.36156135789408   -2.28637118980134
C          14.78665780350884   -3.25064765395451   -2.46982392257715
O          14.07708120842340   -2.13386595709752   -2.19923449335148
H           4.26766014614404    1.42573376869004    1.85427987058232
H           6.72434429928573    1.42595778072589    1.51655434558571
H           6.35959393139636   -1.81259703846675   -1.24277429837620
H           3.89248072326821   -1.82114622003860   -0.91529089615934
H           9.54874491199377    1.96754246771919   -0.57378580227627
H          11.41568304159469    3.52582068080987   -1.08554489030425
H          13.58809731805755    2.68289729197408   -1.81725390303855
H          14.00526429149780    0.26156304674657   -2.07392739599300
H          11.88301790496951   -4.48361781462009   -1.63137760440861
H          14.32622165070528   -5.37844527801484   -2.42663633428910
H          15.80384634104911   -3.11538808485803   -2.77711966834944
