30
         -56.483605701163          0.000492509996
N           1.34286559523765    0.16928125257664    0.20150388294227
C           2.48507866331853    0.12049503487066    0.10174554280166
C           3.88875092034672    0.05628491458054   -0.01986635479508
C           4.68597314675001    1.05925699570691    0.54464688656847
C           6.05297841381447    1.00096269120471    0.41915457735313
C           6.65839884540220   -0.07301906985314   -0.25190307998224
C           5.85041005533614   -1.07277925830338   -0.82046631547382
C           4.48229427214911   -1.00706868866459   -0.70845080501848
N           8.01340439146004   -0.02272062063812   -0.42175125072228
N           8.63391326301506   -1.12421149937348   -0.57951392013639
C           9.94974352717547   -1.07507990628143   -0.86797356366833
N          10.70095059958747    0.01897846863327   -1.05178754714432
C          10.76175110411008   -2.23993336523238   -1.04553182755264
C          10.67573588279590   -3.63247862408317   -1.03283849424898
N          11.73165203971541   -4.36341112820761   -1.29221093984053
C          12.90357647094999   -3.75450792572760   -1.57772423564846
N          13.92951029646748   -4.57223038487277   -1.87487417425157
H          14.84627485466987   -4.18239410017447   -1.99226137569638
H          13.80075479799008   -5.56044703641829   -1.75764449116474
N          13.12942607187011   -2.44215113001858   -1.61804714016429
C          12.04691231791103   -1.72462464329449   -1.34108699579038
N          11.92843370990397   -0.37409478588387   -1.31894667113057
N          12.95286481886705    0.53449279241141   -1.45575001261210
H           4.21519883771356    1.87729157124303    1.07008252781688
H           6.68517147013415    1.76222093261138    0.84875026642537
H           6.33087215417905   -1.87894335454387   -1.35438539790507
H           3.85641525948636   -1.77351497293665   -1.14268476766386
H           9.75725043535610   -4.15958452511030   -0.81458590636119
H          13.63189533306788    0.19784004190126   -2.13150456892268
H          12.56958245121958    1.44261032387239   -1.69905384801104
