35
         -61.929210560860          0.000904870819
C           1.23936306540421   -0.09100446538926    0.84257843153223
C           2.72222518635140   -0.13373011341959    0.65463194159804
C           3.54211233512886    0.82602649144093    1.24470776148018
C           4.90584764697660    0.80649586253430    1.05128490547182
C           5.48924036623700   -0.19327522729802    0.26296918519169
C           4.66702120574949   -1.16180768728770   -0.33327712112701
C           3.30633985822969   -1.12303085509651   -0.13690312745428
N           6.85293369088349   -0.12853385209748    0.10306538236767
N           7.40671864116113   -1.12421002345361   -0.47127427481386
C           8.72590966394646   -1.00501528563802   -0.74598380053481
N           9.44039872946440   -2.07309415146897   -1.06229498949845
C           9.54503932966324    0.17714095940296   -0.85792368986317
C           9.45687004232876    1.55543477361480   -0.71045767210966
N          10.51939019453307    2.30906338744079   -0.92677827102575
C          11.65155341844169    1.72250293654169   -1.30298706508855
N          11.87104797793489    0.43797568897115   -1.50016060901293
C          10.80765099249278   -0.31895869051219   -1.26682808267035
N          10.68330656646410   -1.67600795794228   -1.36584994786625
C          11.64240095229792   -2.60584926767784   -1.70966156945995
C          11.53334387274172   -3.96533384190097   -1.83021445733770
C          12.82381352120663   -4.40669439561384   -2.20322203512984
C          13.60181624113040   -3.29171184352566   -2.27799854415396
O          12.88833663698232   -2.19027139852449   -1.97787871751564
H           0.97892142698669    0.38108656408936    1.78685841452807
H           0.81505777833630   -1.09208666707925    0.81472874721721
H           0.78260234558720    0.48868631438070    0.03915687217402
H           3.09848407437020    1.59606325430468    1.86021707329366
H           5.54620129659026    1.54635188115100    1.50803278714203
H           5.12876189652085   -1.92315600228944   -0.94379705278254
H           2.67574638180904   -1.86832548976292   -0.60071445738942
H           8.54317564400298    2.05391801849674   -0.41709669421891
H          12.49315815784058    2.38018690943204   -1.47384804024211
H          10.64964447255853   -4.54528021920808   -1.67035367041472
H          13.12534652825015   -5.41663299885707   -2.38917910678839
H          14.63480986139774   -3.14931260776227   -2.52332850549702
