37
         -61.385094409562          0.000781312437
C           1.32203892720838   -0.21860431413413    0.78570767188591
C           2.80080865776948   -0.21480080212298    0.55494354643233
C           3.59445649319576    0.81296087871937    1.05922092295395
C           4.95261160343219    0.83809990097971    0.82639929514841
C           5.55830886903329   -0.18580044282566    0.08888450092878
C           4.76234593336285   -1.22106512896225   -0.42157420788769
C           3.40560822967464   -1.22531754859802   -0.19019088752891
N           6.91339407844788   -0.07517161135145   -0.12713056923420
N           7.49637144429305   -1.11370919225192   -0.59085150170281
C           8.80843103428338   -0.97907815834645   -0.89708603316290
N           9.51082088548111   -2.05777900190611   -1.20891200540114
C           9.63863671616933    0.19765492997031   -1.01125958519331
C           9.44862612043054    1.56338741538147   -0.82937514348877
C          10.52536554757887    2.39432768811796   -1.05057018003134
C          11.76666838977303    1.88955545099473   -1.45094258105329
C          11.97614696311866    0.54056240913110   -1.64425384804259
C          10.89381078244195   -0.30084379921863   -1.41740270321535
N          10.75034399481200   -1.66903997000573   -1.51246959777676
C          11.68902473818906   -2.61683148086025   -1.84912489472152
C          11.55588301907215   -3.97628454928019   -1.94115629448193
C          12.83341045136733   -4.45299830441880   -2.31759604111479
C          13.63562710809845   -3.36093221506687   -2.42334644506891
O          12.94617516402891   -2.23331913043688   -2.13969216862424
H           1.07689863338243    0.23250947771203    1.74465600795813
H           0.92672480213519   -1.23138281838052    0.75762360831961
H           0.82347232514162    0.35925104773424    0.00609750582314
H           3.13451627544265    1.60155317556398    1.63808550921539
H           5.57057153372144    1.63158147084318    1.21844726812376
H           5.24026546179180   -1.99821941316550   -0.99857103217987
H           2.79620797730434   -2.02426708972970   -0.58964740252274
H           8.48610996694081    1.93930020237279   -0.52223163828952
H          10.41576169972241    3.46007149295034   -0.91456383065243
H          12.58256208282226    2.57758346888207   -1.61627879918808
H          12.93261173643991    0.15721908488331   -1.95926604678973
H          10.66239614447193   -4.53433679397427   -1.76078741049083
H          13.11198325178157   -5.47291113024933   -2.48456340908096
H          14.66907295763808   -3.24427519895015   -2.68035157986431
