43
         -74.116624897911          0.000597330941
C          -0.92415697622355   -0.64420108936306    1.16038151806515
C           0.37052303097351   -0.93716179584063    1.13745152872686
S           1.57746236842962   -0.17447057692108    0.09614980071016
C           0.49805019896375    0.96568037078525   -0.71529832131899
C          -0.80696158114128    1.08043018531739   -0.49918825296492
N          -1.56422553770907    0.32059580677215    0.38740718994687
C          -2.93274528187997    0.52617810453247    0.50929764535846
C          -3.79495016225852   -0.54682249913266    0.77706245309716
C          -5.14767442657182   -0.34561630514794    0.89551531155820
C          -5.69669612924332    0.93864688859639    0.76675917336072
C          -4.83077111517608    2.01378840022684    0.50006397139165
C          -3.48145621588254    1.80994626732557    0.36837587636377
N          -7.05498672353075    1.04339590345268    0.88806265762489
N          -7.53307260956562    2.23705765519357    0.90063577141423
C          -8.87977487861201    2.33579092543432    0.93326202365156
N          -9.43569321911717    3.52061221561438    1.14511160982792
C          -9.91020206758924    1.34899178949152    0.71297571968028
C          -9.92134797343501   -0.01359904922605    0.43504025919337
C         -11.14538590935561   -0.62611940796611    0.28056752241603
C         -12.33874682128000    0.09500194457438    0.39085492585752
C         -12.35064608514126    1.44728327213249    0.65690237418784
C         -11.11878043868655    2.07101557185666    0.81855184512905
N         -10.76546299471605    3.37245429761617    1.08585188728094
C         -11.54768073621433    4.48501128902308    1.30724827615433
C         -12.89879797050129    4.74338571565217    1.32339314567751
N         -13.10319597853790    6.05362494373249    1.60609296996415
C         -11.92419568421642    6.58720686571171    1.75920199952420
N         -10.93678324426496    5.67686093526548    1.58810187910371
H          -9.93546262393723    5.78191719310797    1.64045978673717
H          -1.56448208111109   -1.14694318145893    1.86919595409535
H           0.78859570913171   -1.67854440962662    1.79437606828545
H           1.00262677384694    1.57804590139766   -1.44091303023592
H          -1.37544900523023    1.78795763745019   -1.08356634909223
H          -3.39995070298295   -1.54895124129505    0.85419899540615
H          -5.81182023666623   -1.17389537205380    1.08855716230698
H          -5.25653978489332    3.00146421966113    0.41164147868408
H          -2.83315872315097    2.65631560186213    0.19348080929719
H          -8.99248576717548   -0.55406322489862    0.35058685625407
H         -11.19268108788428   -1.68392565521705    0.06850226426657
H         -13.27704246528461   -0.42353748972076    0.26044301644108
H         -13.27657463258293    1.99191590339146    0.73218967250085
H         -13.72809116315340    4.09015380663554    1.15374463705642
H         -11.74402904643532    7.61671168605730    1.99221991701705
