42
         -71.265488075788          0.000535759445
C          -2.48331460647831    0.19803903799138   -0.18956717518181
C          -2.43327665347502    1.54152563608023   -0.61663447463842
C          -2.53956576241301    1.50595117746585   -1.97398352865303
O          -2.64926600161346    0.24394831581195   -2.40974419386903
C          -2.61657259564000   -0.56819970972932   -1.32476237681479
C          -2.72102322031242   -1.99722921458414   -1.51354295086545
C          -2.90309296467848   -2.52445629726718   -2.79821186303108
C          -3.02306989413131   -3.87903287141128   -2.99130978674547
C          -2.93879019272654   -4.76077705751686   -1.90497766498323
C          -2.75175106743089   -4.23412615841693   -0.61698500688005
C          -2.65072977120459   -2.87765450624352   -0.42712902141207
N          -3.14090328096855   -6.09177192631580   -2.16335078766610
N          -2.70696174828222   -6.92771153437269   -1.29732697722160
C          -3.02040712911811   -8.23075376313537   -1.50658838351370
C          -3.85954885993942   -8.80652792996240   -2.44582046320413
C          -2.52094804242738   -9.31123105653252   -0.69741798217923
C          -1.65636822408802   -9.36579287140253    0.38970144477024
C          -1.39296259192752  -10.59613824016355    0.95353810394294
C          -1.98434747246035  -11.75957663094571    0.45960975134273
C          -2.84349924266126  -11.72992750868628   -0.62076903793157
C          -3.09477823139981  -10.49665572141399   -1.20392186892565
N          -3.90830786924563  -10.15621194411241   -2.27312392944559
C          -4.65567093741917  -11.02397109646613   -3.04805625205461
C          -4.45114578572928  -12.31877770129284   -3.45902168252228
N          -5.49034471853815  -12.72466398183734   -4.23012218325186
C          -6.31080231542228  -11.71835117662278   -4.29991736106391
N          -5.85646509118686  -10.64809572310693   -3.59909140458026
H          -6.30693804980847   -9.75516640159084   -3.48212220007585
H          -2.43003144765326   -0.14903371842526    0.82155885699356
H          -2.33311308696053    2.41169967650018   -0.00069920738935
H          -2.54709718715416    2.28257077983306   -2.71323878365044
H          -2.95630830315235   -1.84794523539574   -3.63773041382395
H          -3.16296699922708   -4.28917647096979   -3.97988825541563
H          -2.70632940570257   -4.92145563271214    0.21465171260328
H          -2.51232654010239   -2.48421214656845    0.56825609090579
H          -4.40115663802801   -8.31319506577573   -3.23026500558412
H          -1.21394706419079   -8.45970719049238    0.77180528364314
H          -0.72359094270616  -10.66674456667181    1.79785450296826
H          -1.76624006456358  -12.70452155839910    0.93408936814113
H          -3.30876103334849  -12.63078938601259   -0.98736198774773
H          -3.62021387828771  -12.96569101217849   -3.26950162536443
H          -7.23379508819586  -11.71305161695409   -4.84285127962689
