28
         -45.365239312139          0.000919202766
C           1.59275318870681    0.37953769421377    0.95757688135003
O           2.49921304335175    0.07683315187347   -0.07508583593558
C           2.94610040871305    1.08087665687512   -0.87189817345688
C           2.56794416326341    2.41769004457645   -0.76199182975476
C           3.08564666806333    3.35374340413186   -1.63385814047600
C           3.99935330134429    2.98486321708923   -2.62326411941317
C           4.37551524374399    1.63540687275530   -2.72929146839842
C           3.85315783925966    0.70308326823808   -1.87072351770437
N           4.44637765660018    3.98453311662302   -3.45922641260266
N           5.39548997524540    3.66857822459827   -4.25082348695117
C           5.80114072689672    4.64266489038580   -5.11081086088541
C           5.28876460914003    5.94873900329863   -5.35507152084435
C           6.09033394891751    6.44654521111721   -6.34405317397703
N           6.83967145419229    4.40276657409783   -5.91432061893875
N           7.00228373551812    5.48760993040313   -6.64178831076565
C           8.04392399492532    5.55636213794919   -7.62398063208450
H           1.39218179548172   -0.56570566905453    1.45911765083814
H           0.65559888854495    0.78616075468209    0.56394741254785
H           2.02304487029484    1.08547011996584    1.67513500820526
H           1.87018108693070    2.73566095827315   -0.00309831774597
H           2.79867663114596    4.39095223754511   -1.55491882188917
H           5.07445946843684    1.35772270006295   -3.50321005951803
H           4.12528067907436   -0.33893579917939   -1.94027721279781
H           4.45879655630068    6.41100179510780   -4.86415410717320
H           6.08804204491418    7.39043309913367   -6.85275463691364
H           8.64780974339948    4.65663702153799   -7.52844543183220
H           8.66779334089323    6.43631167573406   -7.45901484564391
H           7.62291493670293    5.60325770796519   -8.63089541723699
