27
         -54.135796507246          0.000789814291
N           1.45279964250482    0.03659315566333    0.55417431517417
C           2.58571068137683    0.01804139735794    0.38168186131011
C           3.98279786018755   -0.00011138863682    0.16673664265922
C           4.79183545450581    0.96519571916746    0.77495595466879
C           6.14942733600321    0.95734609491949    0.55152085310802
C           6.72177927548095   -0.02770033382414   -0.26567716808538
C           5.90377136660702   -0.99473656353372   -0.87248454413595
C           4.54569909246770   -0.97826661045924   -0.66060767514377
N           8.07442949203240    0.06479698886703   -0.48716775202484
N           8.64815827403315   -0.95829320391829   -0.97377753732485
C           9.98601731609250   -0.85790555994181   -1.17789753618238
N          10.60475339125501   -1.74964626145729   -1.92123599469376
C          10.94024049097322    0.07893436504633   -0.62507594050787
C          10.99110132396705    1.19734986637491    0.19967318026406
N          12.14975542490799    1.78104534713100    0.43913184206530
C          13.25068211689545    1.27398575737056   -0.10147704136658
N          13.34743198300332    0.21345128862070   -0.88268281443822
C          12.18351467667516   -0.35942185933851   -1.13177536328816
N          11.92195130455313   -1.46415878171656   -1.91139268276289
C          12.81250304588604   -2.17840948753704   -2.59533045151352
N          13.59007826541814   -2.78140462188464   -3.17648710390026
H           4.34133077421030    1.71410663408232    1.40908871951110
H           6.79245564389070    1.69122469255628    1.01169210609419
H           6.36617427169956   -1.72820212307224   -1.51533535047652
H           3.90602338344209   -1.71314888754238   -1.12672240785353
H          10.11162126171757    1.62551296916694    0.65999113005005
H          14.17645685021247    1.78385140653848    0.12536075879383
