31
         -52.249447743131          0.000732617193
C           1.19385439292580    0.06426487593830    0.21595089567463
C           2.68668922114005    0.02627802213119    0.14239339354174
C           3.46407019872539    0.99978345237086    0.76358367308024
C           4.83938697780051    0.96912743707759    0.67612935967433
C           5.47408897437828   -0.05959004929528   -0.02845064169773
C           4.69510515088600   -1.04321982415360   -0.65623374822610
C           3.32403993277481   -0.99047773861929   -0.57052385510185
N           6.84736006938624   -0.00261507749070   -0.09686407343369
N           7.44402312713763   -1.04104851036249   -0.51007288488781
C           8.76355070206776   -0.97485227726555   -0.78856788334115
N           9.53523271168205   -2.03786027360413   -0.68709149236404
C           9.49029790344209    0.12420845495171   -1.39427583007824
C           9.18331506151411    1.43088505938914   -1.75042268208603
C          10.18463809034112    2.18548885600486   -2.32565439001736
C          11.45775255342525    1.65728776162484   -2.55749112217732
C          11.77870513443769    0.35699253023813   -2.22270704133482
C          10.77283169612260   -0.39620175089397   -1.63702644985549
N          10.75077521587765   -1.70332509314288   -1.17952700760473
C          11.77740642826094   -2.53665320628866   -1.19174668183641
N          12.69653297873153   -3.22037689871425   -1.21918555408778
H           0.85394122336094    0.81480974348771    0.92464469093924
H           0.80223512504297   -0.90686460772868    0.51415099324369
H           0.77784808609268    0.30042671715284   -0.76369168205826
H           2.98070550109216    1.79071538609725    1.31884127578218
H           5.44706595877923    1.71928905568056    1.15827671524851
H           5.19619368526403   -1.82558492931197   -1.20615004398935
H           2.72526665819168   -1.74595164315538   -1.05933814704823
H           8.19719189285180    1.82928548662669   -1.56923114654454
H           9.98599737337009    3.20878479179369   -2.60621862496147
H          12.20853161438571    2.28354045941679   -3.01504693213049
H          12.75638636051068   -0.05935620995908   -2.40864308232323
