38
         -65.105078567075          0.000551491904
C           2.07435153973859   -0.04238991896825   -0.86206015659592
O           2.56595830302833    0.12317846481218    0.44687729668880
C           3.12686612269063   -0.93786494055514    1.07689764576462
C           3.59178459981559   -0.69598083594827    2.37592422183912
C           4.19038431960793   -1.69574351590192    3.10016962778347
C           4.33238148319877   -2.98044686757879    2.55453036280313
C           3.85994089434160   -3.21794575911090    1.25669974967094
C           3.26976708619835   -2.21196738514370    0.52493962860342
N           4.97723801142106   -3.91141952355697    3.32952876384322
N           4.95099012791385   -5.12141379902411    2.91170414080273
C           5.68485022163726   -6.01000408888033    3.62138071707003
N           5.54767334583803   -7.30524276852397    3.37698483120308
C           6.71045424261818   -5.80934932711520    4.61591448550421
C           7.27705085881159   -4.69819123419384    5.23190180783434
C           8.27021293447882   -4.91801445882852    6.16013657562897
C           8.70259245945086   -6.21157202828940    6.47096916205451
C           8.16235642421543   -7.32552031658228    5.86562035445513
C           7.15684586286822   -7.11149260407299    4.92969156113662
N           6.41295771717141   -7.96841604350563    4.15313029497429
C           6.42558736914947   -9.34449424022604    4.07664022286240
C           7.16344960223753  -10.34870143363881    4.65948845759022
N           6.73222792582282  -11.54887741191041    4.19992089813810
C           5.76521703053943  -11.29875002573870    3.36284261425927
N           5.53417133182336   -9.96980974534262    3.24787351171871
H           4.86322257214725   -9.47133911197770    2.68422257214430
H           1.68149287104910    0.93024992797185   -1.15379536894460
H           1.26968513275884   -0.78323536413897   -0.89796585281125
H           2.86936683574239   -0.33345555906105   -1.55554052076444
H           3.46906349483923    0.29554942321667    2.78267602055229
H           4.55019365015636   -1.51524076837594    4.10122930945552
H           3.98050064634243   -4.20679823995976    0.84136819092274
H           2.92421121562690   -2.42230920643630   -0.47518223174817
H           6.93321314560266   -3.70801557251454    4.98032895992736
H           8.72942313952514   -4.07972938687783    6.66246067589487
H           9.48499923047071   -6.33917053942337    7.20417977967492
H           8.50918418753443   -8.31530406020958    6.10967231822135
H           7.96462919222796  -10.29556045312924    5.36550938971993
H           5.21270487136773  -12.04272128126372    2.82636998210977
