36
         -61.651037980177          0.000892479412
N           1.37960664801742    0.06863646729254    0.89176744046980
C           2.51717353461737    0.00199999304971    0.75335570984541
C           3.91381425626004   -0.08082784481631    0.58298562836989
C           4.76336076975769    0.70622234190372    1.37028621331814
C           6.12381588722899    0.63760745873782    1.19460507475253
C           6.67320676005789   -0.23988916042709    0.24657073014364
C           5.81389951680441   -1.02856888111930   -0.53738502525398
C           4.45197390084652   -0.94581872695408   -0.37534011156995
N           8.01671601851920   -0.17847618752329    0.01489681753363
N           8.63398095552150   -1.23225849527457   -0.34024476476096
C           9.91912946293178   -1.09385755141780   -0.74191530224692
C          10.72665405872484   -2.18006456915152   -1.02227892685272
C          10.71559067099965    0.08398323091159   -1.01012881286912
C          10.45494356454248    1.44747058105144   -0.94933664224239
C          11.45381482903738    2.32010903368422   -1.33120042849493
C          12.68698528870631    1.85348920466755   -1.78294898353494
C          12.96707008285867    0.50195442781093   -1.84952635715483
C          11.97590951011795   -0.37773566072965   -1.44275292741905
N          11.95674808293119   -1.76753826213652   -1.42050143501625
C          12.99760797793490   -2.60906871781255   -1.76603451803414
C          14.33386683421278   -2.44594312944028   -1.54023800569645
C          15.10035138187515   -3.51680384199734   -2.04775133663597
C          14.34549510847172   -4.47370992495426   -2.64139150183841
S          12.66880727976434   -4.09602663494266   -2.61153117618752
H           4.33709742834603    1.37000627272955    2.10839440894444
H           6.79083935312981    1.23560405826417    1.79660847042198
H           6.25122105497681   -1.68364924477248   -1.27619984119504
H           3.78898575307622   -1.54936699277660   -0.97859813707193
H          10.49052992171358   -3.22369667899648   -0.94007790171788
H           9.49122361371493    1.79856293668415   -0.61718630535648
H          11.27729748791907    3.38447427631072   -1.29294889094024
H          13.43891933249984    2.56297689526422   -2.09415303523418
H          13.91532215022702    0.15188870117050   -2.22562557451081
H          14.75048039912811   -1.61506696410308   -1.00241879304640
H          16.17040037358794   -3.57112347330861   -1.96314747704588
H          14.66578075094067   -5.38884493687996   -3.09696828187237
