41
         -75.526806896377          0.000468351259
C          -0.45779015465867   -0.19622149328161   -0.47023147655074
C           0.13547861192541    0.88071015028558    0.21908974080667
C           0.51042823531438    0.38584717104071    1.43236810886099
O           0.19170930146659   -0.90951305152227    1.53725115090996
C          -0.40301858628228   -1.28029797574202    0.37721840624358
C          -0.85800494172243   -2.64230739632620    0.22361498111560
C          -0.69841365372564   -3.55940773628071    1.27017947772631
C          -1.13937617808003   -4.85439637575096    1.14037843747653
C          -1.75704302100027   -5.27762166021191   -0.04443436028284
C          -1.90758387700511   -4.36167244302761   -1.09954911549274
C          -1.46747614575486   -3.06882110725719   -0.96450061626800
N          -2.17072279925567   -6.58692768725156   -0.07851705614340
N          -2.80450287788935   -6.95375842651380   -1.12199376159918
C          -3.14418492608209   -8.24904377347247   -1.26522016463011
N          -2.50159660293513   -9.29540697038929   -0.75612786027803
C          -4.19338193142623   -8.70118832482538   -2.13414206335774
C          -5.20256425506287   -8.19316034774335   -2.94527856840565
N          -6.00099059800881   -9.00480880082219   -3.59954040029254
C          -5.83110620148162  -10.33538356611402   -3.46091925145501
N          -6.68683443461627  -11.11189178714951   -4.14718009811359
H          -6.60248692587481  -12.10936205564832   -4.08890158554874
H          -7.38100629932302  -10.67668991444125   -4.72499424307998
N          -4.91106465460365  -10.95171464825038   -2.71645350672687
C          -4.11498084478022  -10.11336878049042   -2.07171298762582
N          -3.07408816756827  -10.41062618088093   -1.24570867744217
C          -2.58112799554345  -11.65053252034314   -0.91195681654495
C          -2.94619487237960  -12.92620572926345   -1.26930300107631
N          -2.13281069163139  -13.81201522081845   -0.64378616902844
C          -1.29945765341278  -13.10890276114855    0.07101946852439
N          -1.52644817193519  -11.77800036232509   -0.05260553082435
H          -1.05221886444362  -10.99659540487187    0.37181227168984
H          -0.86914231938667   -0.16754209365141   -1.45789554389027
H           0.26475205764599    1.88217424010609   -0.13664442017092
H           0.99435346275539    0.84227057962095    2.27329252534224
H          -0.22539423200591   -3.23238676098553    2.18356794675339
H          -1.02465813428896   -5.56713814932497    1.94215429093163
H          -2.37985574761655   -4.69978696059483   -2.00962023390918
H          -1.59132549439518   -2.37123507837786   -1.77833179068272
H          -5.36979763630053   -7.13278017323265   -3.07741025520554
H          -3.73247347025087  -13.23347873036460   -1.92536030438381
H          -0.52451830837798  -13.51826169235648    0.68642305262940
