39
         -70.763884659328          0.000873312069
C          -0.81707678407447   -0.14993411239716   -0.38950957799271
C          -0.25415623766085    1.05052974871018    0.07764247699761
C           0.56932450805855    0.86307956916817    1.14378842267374
S           0.67119480405654   -0.78450318256849    1.60079336253657
C          -0.42253167005353   -1.25476600602659    0.32502054745058
C          -0.78959284684109   -2.63667017224004    0.13752203706974
C          -0.32239659873703   -3.62409629277393    1.01578237821252
C          -0.66311806027099   -4.94334146328436    0.84545195850487
C          -1.48925545905168   -5.32877669294851   -0.22008215750006
C          -1.96255183740763   -4.34435971988212   -1.10436449509989
C          -1.61824123607321   -3.02874087621680   -0.92626321140345
N          -1.77754595307125   -6.66538505870193   -0.31693738577173
N          -2.50120068772220   -7.01897804491834   -1.31437306710500
C          -2.79766728952473   -8.33753686510909   -1.37265858391796
N          -3.44424620934827   -8.82303266041063   -2.41975426167982
C          -2.54500332137163   -9.39987790323988   -0.42857588499759
C          -1.96281407472078   -9.61042511339040    0.81527798997643
N          -1.94848857601473  -10.82302676338622    1.33816806076730
C          -2.50537350859871  -11.81864763991974    0.65814454355859
N          -3.10066337500336  -11.76219782445571   -0.51786385887589
C          -3.10808378243947  -10.54371837993386   -1.04470630044638
N          -3.63150521972189  -10.13156838329887   -2.23770798707651
C          -4.27343733378337  -10.89473084462512   -3.18677721256797
C          -4.54076337287248  -12.23406297795120   -3.14550915749308
C          -5.21708646222431  -12.66363878232182   -4.30493747346066
C          -5.44510177402983  -11.65673362674833   -5.18869914178991
S          -4.84227889172769  -10.14180387312355   -4.63768476051899
H          -1.49429495364015   -0.18882643787003   -1.22337711018528
H          -0.45186767701361    2.01231995853681   -0.36106033952744
H           1.12671959775878    1.59589488126852    1.69286170627071
H           0.31602973173869   -3.33493750234012    1.83837391153611
H          -0.30184931852190   -5.70313647863232    1.52098762306025
H          -2.59689924974418   -4.65445896732661   -1.92078215495175
H          -1.98721260006962   -2.28697239450404   -1.61736482885400
H          -1.50841041225429   -8.81479453914337    1.38871456929690
H          -2.46835665811925  -12.79363776622827    1.12518007750062
H          -4.26050278284082  -12.86251778766774   -2.32113444748983
H          -5.51962974828869  -13.68162620981022   -4.47073519768563
H          -5.93510467877598  -11.70873281428853   -6.14022106902073
