41
         -75.040213776157          0.000810022669
C          -0.67195187934389   -0.20074890122417   -0.31232515402006
C          -0.05974395942758    0.97303128394212    0.16204139778839
C           0.70540609760987    0.75566611529988    1.26456749164530
S           0.69166283919894   -0.88835448205902    1.74708952159360
C          -0.37294011143922   -1.31452320055518    0.43220205647219
C          -0.82030208489647   -2.67496246983913    0.25535996841983
C          -0.48117646730729   -3.66385141068217    1.18834531411891
C          -0.92342507802717   -4.95615141497507    1.04497989175067
C          -1.71449776110356   -5.31613248406051   -0.05459320738630
C          -2.04677125665331   -4.33309789705693   -1.00118176808519
C          -1.61142526945024   -3.04098101629256   -0.84452490241404
N          -2.14120970101791   -6.61981334745029   -0.09448698569325
N          -2.75300847634560   -6.99052399139055   -1.14692998772961
C          -3.12447344644208   -8.28119164242377   -1.26867445182392
N          -2.50526695762320   -9.32535817903681   -0.73355189231180
C          -4.16997901740982   -8.73012969729863   -2.14433553585102
C          -5.16110898037834   -8.21982737796139   -2.97511889425140
N          -5.96495776995337   -9.02903900032784   -3.62741028232826
C          -5.81699200953995  -10.35870444486955   -3.46428196407009
N          -6.68342048530998  -11.13693938439305   -4.13672830335779
H          -6.57612944827765  -12.13284175079110   -4.09465499904146
H          -7.33299139917568  -10.70621132972389   -4.76813717394358
N          -4.91531507738129  -10.97566332227189   -2.69904138824149
C          -4.11412252873551  -10.14259255115434   -2.05715362073013
N          -3.08512162455991  -10.44189823610254   -1.21079800421915
C          -2.59885321868305  -11.67819840613576   -0.84826774587462
C          -1.57568944768699  -11.99286752787168    0.00528110917924
C          -1.51782701103175  -13.40588516333757    0.00837393373062
C          -2.49975320255302  -13.82999933780944   -0.83278043403960
O          -3.16342510108657  -12.78179875326320   -1.36035823543707
H          -1.31670260177124   -0.21310238848254   -1.17196847640155
H          -0.18374903127187    1.93794339566679   -0.29632621425481
H           1.27996594855905    1.46371413000099    1.82822604915202
H           0.13124787948100   -3.39549688066406    2.03745902846233
H          -0.66709445701025   -5.71839584890832    1.76383425205251
H          -2.66143674358366   -4.61665104826735   -1.84237942718784
H          -1.88002147550773   -2.29866316394423   -1.58020792722424
H          -5.31036220359063   -7.15937679233754   -3.12675081950413
H          -0.96635769846450  -11.29848125996309    0.54283755842804
H          -0.83710679348796  -14.01726194619200    0.56375847803036
H          -2.82016298932272  -14.80752887579199   -1.13146825540229
