34
         -61.382658426424          0.000612764511
C          -1.12929090278136   -0.13934978173920   -0.07721493907081
C          -0.36863611371562    1.04186322116605   -0.01546053402966
C           0.96123908132935    0.80070521594641    0.13197185193185
S           1.31092843660880   -0.87530368690216    0.20280282999908
C          -0.37603364430145   -1.28238679919243    0.02562466013725
C          -0.80460347164744   -2.66053666464612    0.00428889832259
C           0.11226788123562   -3.69577799063435    0.22797419857690
C          -0.28596686072814   -5.01065835759798    0.21853553218755
C          -1.62349556603332   -5.34260781997812   -0.03198053573762
C          -2.54767079447082   -4.31076636724340   -0.26026943444085
C          -2.14469189320897   -2.99877098758297   -0.23800752700007
N          -1.93175818415831   -6.68256702763551   -0.00973619367461
N          -3.11182975665209   -7.00037475989529   -0.35217282313024
C          -3.45056216412869   -8.30458179751735   -0.44577821294905
N          -2.64960712337833   -9.29045357130196   -0.82979908154499
C          -4.79656196105835   -8.78930858699840   -0.32142678954065
C          -6.06688387706667   -8.34854683465421    0.03015401033677
N          -7.08629066654328   -9.17800058288356    0.01535183116072
C          -6.87393135395019  -10.46214377211116   -0.33417617875947
N          -7.96319257696155  -11.25278829991825   -0.35247504879285
H          -7.85342209324429  -12.23241236939174   -0.53707874589269
H          -8.83715746991454  -10.87714030301859   -0.03466393818223
N          -5.71024373761160  -11.01985845843768   -0.67215457722251
C          -4.69806542973733  -10.16449655658596   -0.65828120027515
N          -3.40200289519368  -10.39506406274707   -0.96069200198498
H          -2.98750270908652  -11.24780364138106   -1.30064927108985
H          -2.19841088542307   -0.13670373323869   -0.18677502809719
H          -0.79211883645823    2.02855356031423   -0.07803334479875
H           1.76322057870233    1.50818039058020    0.20551017601751
H           1.14723912180520   -3.44801313357305    0.41586213556568
H           0.41800195512862   -5.80970237721778    0.39025545280078
H          -3.57845439213364   -4.57428055909819   -0.44422995361480
H          -2.86904572350615   -2.21897288670033   -0.41597689198009
H          -6.27583597171613   -7.32770061818430    0.32079067477223
