29
         -53.133735692932          0.000491663998
C          -1.12631979498472   -0.02326248432982   -0.28820531550134
C          -0.22184196775516    1.03347050029003   -0.06348900735013
C           0.94270163705820    0.44891763716073    0.33792198734809
O           0.81944100771283   -0.88222657719268    0.37454686050863
C          -0.44530815013604   -1.18708505218230   -0.00628247009002
C          -0.85164007072086   -2.57140115067254   -0.05043162320405
C           0.06620006710906   -3.58250688724787    0.26305577122175
C          -0.30898780996000   -4.90369843510157    0.22776884466461
C          -1.62159381840559   -5.25702531217076   -0.11448915907618
C          -2.54345481436473   -4.24527523773486   -0.43271651759113
C          -2.16154832127077   -2.92771533024154   -0.40239474161714
N          -1.90486348184556   -6.60036039831082   -0.13208470284784
N          -3.12342697697364   -6.92466784305676   -0.31774217957541
C          -3.37152892801623   -8.26001924399703   -0.41724264086099
C          -2.46842413872171   -9.34264938848407   -0.69254734576124
C          -3.25596654995806  -10.44529395339120   -0.75530823812781
N          -4.61449788060539   -8.70128854857944   -0.32816205316556
N          -4.54675098692649  -10.02299708497848   -0.52373332928154
C          -5.61366308196874  -10.81258412660548   -0.49047635747132
N          -6.50676854436765  -11.52761784372621   -0.46897924631065
H          -2.14110275459149    0.06838174062304   -0.61574605885151
H          -0.40965996739517    2.08060237506898   -0.18272110493310
H           1.89234150920353    0.86220750859930    0.61557250477464
H           1.07461722905166   -3.30787917352544    0.53233124414848
H           0.39034982403383   -5.68910638768166    0.46957368923474
H          -3.54858130051759   -4.53490739948268   -0.69927532640772
H          -2.87444563740298   -2.15595414209285   -0.64749620266371
H          -1.41031072625771   -9.26146531592515   -0.82494031485956
H          -3.04036557102290  -11.47971244503108   -0.93519696635303
