39
         -63.974941173216          0.000760203691
C          -1.05920779115625   -1.02065236180920    0.23787507720509
C           0.19394312152053   -1.42805368729423    0.07862272063508
S           1.57117351366834   -0.38398334453132   -0.29822524841873
C           0.71124070600077    1.16158211416940   -0.25230770762550
C          -0.59104788684621    1.31291970230874   -0.04467309665867
N          -1.51403575573673    0.29259231738531    0.16447187482365
C          -2.86531516378023    0.57659927589568    0.33200396689598
C          -3.83951624924264   -0.30646194060414   -0.15282089584605
C          -5.17545997391503   -0.03204889305492    0.00947390273904
C          -5.59377941927057    1.12800436218694    0.67578977410488
C          -4.61567037976983    2.01261414557303    1.16082594328107
C          -3.28158883898325    1.74453964039777    0.98693782177462
N          -6.94605705054695    1.32201632010120    0.78402194696104
N          -7.31929529550282    2.31579650025078    1.50718205652037
C          -8.65420519633703    2.52647161588034    1.56955892570157
N          -9.12572987572403    3.46339410916241    2.38552524539012
C          -9.74759881079857    1.90819529291840    0.85938706516337
C          -9.88001190612611    0.91011318610356   -0.10123867982115
C         -11.14995995329220    0.60771020827139   -0.54071765156273
C         -12.27619927789756    1.27760647941555   -0.04795627516829
C         -12.17085494459137    2.27193643047180    0.89910757320773
C         -10.89022863279416    2.57958361413749    1.34794878826431
N         -10.44472372399249    3.49339879075011    2.25890271699545
C         -11.23311534309891    4.40146424325694    3.03691919987427
H          -1.81792793452855   -1.74123511982383    0.50404551362426
H           0.46737580575409   -2.46150313770776    0.18976114961630
H           1.35458691168306    2.00540573244732   -0.42726490455636
H          -1.01655784285153    2.30454881826341   -0.07596877029772
H          -3.54024768960626   -1.19401759889973   -0.69073542158541
H          -5.92566875022343   -0.70625623238163   -0.37466450602918
H          -4.94343334870591    2.89987803940271    1.68030354618094
H          -2.54728516060389    2.42463648252162    1.39426516683950
H          -9.00704865459463    0.40081162593068   -0.47578813937078
H         -11.28916842840747   -0.16349127623670   -1.28438498619677
H         -13.25163756465712    1.00580738877046   -0.42416932016714
H         -13.04030375012390    2.79013890537775    1.27423559737514
H         -11.78132646199611    5.08808451098497    2.38754113359387
H         -10.55521786841921    4.96562569232762    3.67338898124807
H         -11.94625513450880    3.85420804768361    3.65776991528511
