31
         -55.956062941755          0.000362572635
C           2.79175740048632    1.01898326297446    0.89213885086967
O           2.85713255739204   -0.09525609151433    0.03381303279235
C           3.27790298710814    0.07958186577426   -1.24112218593697
C           3.65779651713637    1.30088572827288   -1.79830762972455
C           4.07104223513008    1.35840507544964   -3.11242357882785
C           4.12587658088111    0.20412964467632   -3.89973587339782
C           3.73797461049161   -1.02319357278050   -3.33289128889317
C           3.31971296222280   -1.07960251222889   -2.02970126472297
N           4.54804153627323    0.36366421465577   -5.19685747711699
N           4.70739542757373   -0.71121647007748   -5.87297487243614
C           5.07475914065883   -0.54805080619750   -7.16642387315512
N           5.38886560865114   -1.62009127210139   -7.88709853245380
C           5.16601489132006    0.63521602084155   -7.98929861050477
C           4.95257047657710    1.99983078124673   -7.80916381120333
C           5.15451040921186    2.82956757433319   -8.88978064146963
C           5.55645795024125    2.33432526775451  -10.13715500320088
C           5.76885441575527    0.99054383187115  -10.34975555011156
C           5.56728758106675    0.15423695094503   -9.25821628670306
N           5.66930968621199   -1.18585328516941   -9.08581257183709
F           6.05393827732964   -2.07577069452991  -10.04620337076043
H           2.44266868824497    0.63312679210221    1.84847964202869
H           2.08376550976860    1.76829993112560    0.52424155705508
H           3.77495761229195    1.48083382864190    1.02614375249652
H           3.63293648959269    2.20736920533777   -1.21388567061258
H           4.37008922989526    2.29868020328262   -3.54980686516622
H           3.77701415089219   -1.90728231339295   -3.95020909899635
H           3.01553300103546   -2.01083018840986   -1.57721483404633
H           4.64180408704938    2.37350243753743   -6.84733478237251
H           5.00049164442856    3.89263542502153   -8.78095607315561
H           5.70034620853619    3.02700002587885  -10.95256264774059
H           6.07340212654597    0.60034913868154  -11.30792444069515
