41
         -74.664226962344          0.000597053350
C          -0.88634498831636   -0.65550706605901    1.18610403877663
C           0.41300952849511   -0.92964794871219    1.16774588310800
S           1.60120660861711   -0.19875582934540    0.08645571541768
C           0.49199100295705    0.83758566776230   -0.81424341818791
C          -0.81208474806464    0.95120021028451   -0.59004675914202
N          -1.54394703580258    0.26398221299940    0.37399980439183
C          -2.90488884699174    0.48862607100338    0.51765749153666
C          -3.77117427157639   -0.55213203013988    0.88558288163578
C          -5.11648192602874   -0.32498526020040    1.02776268420817
C          -5.65439654264677    0.95595243386359    0.82683923953150
C          -4.78451958613078    1.99915916898727    0.45835214434687
C          -3.44375749315115    1.76734279353519    0.30007330602843
N          -7.00160726506769    1.08621514922303    0.99428185827591
N          -7.47884479454065    2.27825768820065    0.91892320171161
C          -8.82318053823177    2.37588862748272    0.98076211773500
N          -9.39967653573927    3.55322487003365    1.17820148558677
C          -9.83831396462969    1.36953505427139    0.78115596014754
C          -9.95761057347912    0.01160761514745    0.51950884408666
N         -11.15542072316755   -0.53489667016143    0.40899687537115
C         -12.22568558269903    0.24305204513429    0.53570348633673
N         -12.26225205460951    1.54113769477937    0.76352701244409
C         -11.05718779782186    2.08435165055999    0.88777051658445
N         -10.73210960336445    3.38350746070881    1.13027171328921
C         -11.57751300384311    4.45080182038618    1.33447473091004
C         -12.94674605311454    4.56840140148685    1.34646161018476
N         -13.27742396006671    5.85744129666288    1.60184705256830
C         -12.15642008242275    6.50798694380887    1.74199096366465
N         -11.08027151795172    5.69824340938026    1.58847653968383
H         -10.09658216951370    5.91035150759194    1.64097617447553
H          -1.51418701198746   -1.13569354052091    1.92052824321938
H           0.84571524682054   -1.63688684999071    1.85201420931916
H           0.97334087430141    1.38248853413450   -1.60615843229107
H          -1.40263966326152    1.58773534497467   -1.23114880568114
H          -3.38624380921987   -1.55166211559609    1.02000950957563
H          -5.78566660870139   -1.12775243796074    1.29409966796522
H          -5.20081242462210    2.98468405275330    0.31734919984773
H          -2.78972424280114    2.58894818491972    0.04778041299096
H          -9.10074422853349   -0.63740405954867    0.40241531561694
H         -13.18396576219379   -0.24824551713424    0.43392114916862
H         -13.68243692018162    3.80859227394837    1.18779467583967
H         -12.07879093070787    7.55499814134773    1.95305169972227
