27
         -48.552737863127          0.000728033400
H           1.12081106266773    0.06435202732070   -0.16405524430100
C           2.19801748073098    0.00213973283332   -0.21339309149776
C           2.97508942925183    1.02875623315621    0.30238293942532
C           4.35183273191887    0.94945339215027    0.24692092025235
C           4.96583418287590   -0.16100641443695   -0.34133784691399
C           4.17437484994677   -1.19456572372271   -0.85998785783060
C           2.80047334550562   -1.10800060175833   -0.79013911943532
N           6.34732764724401   -0.15227568715579   -0.34537099463785
N           6.91851558644547   -1.08862362969026   -0.97658987570695
C           8.26335284108331   -1.08566846384034   -1.10923351413811
N           9.02134981634152   -0.00831457067582   -1.26744909422842
C           9.05345564464370   -2.27036270340304   -1.29209873833331
C           8.93275437198009   -3.65503848308135   -1.26818196096298
N           9.97963238043685   -4.41722294974078   -1.49160253554751
C          11.17072564999666   -3.83292690298015   -1.73003459224990
N          12.20738150105578   -4.67157810165659   -1.91606503876193
H          13.09793136159594   -4.29505134172246   -2.18314611869913
H          12.02184224514540   -5.65535169431249   -1.97876412544347
N          11.42650569487236   -2.52489284766789   -1.78009888724380
C          10.35722605102460   -1.77489965302653   -1.55525280510895
N          10.26713126338399   -0.42735175152423   -1.54312022589119
H          10.98862609604129    0.24404421633561   -1.75094105412655
H           2.50171324770391    1.88984171591288    0.75074192632286
H           4.97828003190750    1.73538648129555    0.63887116240119
H           4.66332915420065   -2.05045515283421   -1.30050891608077
H           2.18896031127903   -1.90656285066307   -1.18489830166379
H           7.99606602072016   -4.16098427511160   -1.07591700959879
