29
         -52.795681612665          0.000560348314
N           1.20736364831163   -0.31791331845444   -0.43731277825984
C           2.34783170509837   -0.27272380274331   -0.54719589492727
C           3.75277027176350   -0.21656196494121   -0.68332615503134
C           4.40710972614262    1.01802010554786   -0.63361634991173
C           5.77520614534020    1.07141036631042   -0.77371984882873
C           6.51233348278445   -0.10595830141255   -0.95583663444473
C           5.84837727348912   -1.34175479846077   -1.00744071054481
C           4.48159428208441   -1.39628184332133   -0.87203031983057
N           7.87139634639981    0.04532771502267   -1.12396608547545
N           8.56340100969970   -1.02661104421723   -1.10674451696188
C           9.89590250624741   -0.86830353307256   -1.28994372692940
N          10.67510790296648   -1.93860614013405   -1.37524007422352
C          10.70164761398317    0.32170329544599   -1.39273139282769
C          10.59213102960431    1.70801793332542   -1.37905157678519
N          11.67283797643751    2.45272164752514   -1.51399164144662
C          12.85295757976852    1.85628358277573   -1.65372920626221
N          13.10703815859467    0.56323714339953   -1.67586083741911
C          12.01688068625654   -0.18556324534098   -1.54526252563336
N          11.92905728715113   -1.53883996447504   -1.53039024535174
C          13.00862915755268   -2.47206050344209   -1.66539547061661
H           3.83102484899639    1.92019579481712   -0.48988520974930
H           6.30162682305446    2.01240275872336   -0.73738196060490
H           6.43637587474852   -2.23372524944071   -1.16087790559533
H           3.96041524779461   -2.34188976130417   -0.90938284854982
H           9.64668832048924    2.21951574117835   -1.26380324166622
H          13.70691947336640    2.51205355919356   -1.75855923085217
H          13.92635128252651   -1.90226950741568   -1.79518308032653
H          12.83831014079301   -3.11500383804042   -2.52980310961612
H          13.07597419855481   -3.09607282704858   -0.77342742132778
