37
         -64.709106904880          0.000411738632
C          -1.05802943099435   -1.08475787851137    0.23523632163661
C           0.18363285518921   -1.52029950517630    0.06135318489499
S           1.58240893704056   -0.50625760056577   -0.31814948768308
C           0.75816064327526    1.05815850664891   -0.25986603612584
C          -0.53822631446552    1.23886922456524   -0.03938192142858
N          -1.48292144925982    0.23954059017441    0.17569785459350
C          -2.82757744598135    0.55310327245159    0.34190430051099
C          -3.82173154324173   -0.30850111531289   -0.14074468474250
C          -5.15116469480885   -0.00209688321442    0.01738771212115
C          -5.54490440008038    1.17131334191567    0.67494000144828
C          -4.54679460999477    2.03300936767764    1.15976676418489
C          -3.21867993726119    1.73200876867695    0.99248343165107
N          -6.89326168355122    1.39807323559287    0.76971581139105
N          -7.25320639259007    2.41205903040958    1.47116495400406
C          -8.58668634055848    2.65501289174811    1.53178720288364
C          -9.11535104208973    3.67872156665800    2.29997881608829
C          -9.70559527033077    2.00822443188673    0.88128646236766
C          -9.82414494343751    0.94173678343979   -0.00427467904497
C         -11.08437738416410    0.58628219790695   -0.43891927953142
C         -12.22509363602540    1.26918388528419   -0.01258688956264
C         -12.14046350090816    2.33236291135750    0.86314664975266
C         -10.87350497785288    2.68808171110331    1.29983319704714
N         -10.45508783441226    3.67350924176159    2.14454739132752
F         -11.29278999631792    4.55604359912695    2.78015788281259
H          -1.83095856773038   -1.78987768201632    0.50255927918807
H           0.43309203643901   -2.56119384506836    0.16127588466707
H           1.41878780516868    1.88741491016817   -0.43855516798040
H          -0.94059725063129    2.24011547734804   -0.06411322982807
H          -3.54323476017239   -1.20477032967106   -0.67513082054895
H          -5.91549507695608   -0.66007005861570   -0.36658241417675
H          -4.85122513583902    2.93250000398204    1.67268578326279
H          -2.47034393364297    2.39648207438630    1.39989945808057
H          -8.62156869258404    4.38689745116909    2.93398965225610
H          -8.93976457343141    0.41932179848587   -0.33047489302237
H         -11.19755958082706   -0.23918231506742   -1.12601866591306
H         -13.19315210044251    0.95962320635189   -0.37674501142144
H         -13.01676977653033    2.86692773293870    1.19626518483569
