41
         -71.870886478943          0.000888341009
C          -0.82200221823687   -0.05637690517519   -0.89083483527092
C          -0.06317273569843    1.02540336180302   -0.39892807629642
C           0.82079449784876    0.48834362258467    0.48811251525673
O           0.66045555110228   -0.83779359560147    0.57600705035027
C          -0.34406847551603   -1.18559709146552   -0.26486621516001
C          -0.72446235030250   -2.57531171515182   -0.37001850458687
C          -0.05789452707331   -3.54529442180659    0.38858171840407
C          -0.40608786777713   -4.87134146586710    0.29244496464487
C          -1.43327543608673   -5.27396787814829   -0.57154443583872
C          -2.10699915359622   -4.30130255080798   -1.32911835583496
C          -1.75741630940194   -2.97803110922145   -1.22763385745468
N          -1.70944187305553   -6.61934516032967   -0.60746639971883
N          -2.61289540564173   -6.98629847884708   -1.43906248243991
C          -2.87418262418011   -8.31343254060284   -1.47579799469947
N          -3.80676194009128   -8.76092521894543   -2.30379337701502
C          -2.29068733616129   -9.41921692643140   -0.75027033086850
C          -1.30356725122572   -9.55595269230448    0.21996100330538
C          -1.02772759025993  -10.82590658931106    0.67831336302288
C          -1.71134612811305  -11.94311051922350    0.18875078502489
C          -2.69219048812867  -11.83191657352467   -0.77404458933646
C          -2.97345304052920  -10.55266678232883   -1.23748375656077
N          -3.87458808986287  -10.08555067574297   -2.17149549357441
C          -4.78058784147395  -10.79025093811982   -2.93000148890967
C          -5.69650051867616  -10.32952838085905   -3.83739383337940
C          -6.35948679162835  -11.48240863625480   -4.31857764460030
C          -5.80285819303715  -12.54261311582485   -3.67518940086360
O          -4.83693595540390  -12.13087545546324   -2.82419698818425
H          -1.61255197704482   -0.00145279348411   -1.61027272407920
H          -0.16060496435635    2.05735287456324   -0.66721893694479
H           1.58467198062363    0.93192928888599    1.09594255258350
H           0.73629914752383   -3.23613361384704    1.05111768053862
H           0.10633957322884   -5.62289142817101    0.87321757442235
H          -2.89956906389249   -4.62645232623057   -1.98576022452816
H          -2.28007151254211   -2.23795311280302   -1.81379097103795
H          -0.78473001529441   -8.68630436896273    0.58863212300529
H          -0.26829420038101  -10.96911926796428    1.43260700923209
H          -1.46301498521033  -12.91989878024496    0.57662206207833
H          -3.21554712049629  -12.69581805530447   -1.14924731609540
H          -5.85600821696258   -9.30773840972829   -4.10677522332753
H          -7.14450320074629  -11.51248384967257   -5.04542324842444
H          -5.98820535224401  -13.59639772406516   -3.72353369683788
