36
         -62.478807685939          0.000543814477
N           1.45050647422857    0.05487097864121    0.99630944569243
C           2.58783074976020    0.00552665880249    0.84935793561256
C           3.98392620480711   -0.05700727390847    0.66446584725562
C           4.83273932787853    0.73088667066823    1.45152996333369
C           6.19205507207719    0.67831223162181    1.26140857228400
C           6.74088095163333   -0.18445717989314    0.29975354853506
C           5.88220862619118   -0.97244232070680   -0.48545141369931
C           4.52119726611761   -0.90532806322124   -0.30927526662628
N           8.08418202786706   -0.11424787010541    0.06637650168579
N           8.70297345662308   -1.16441549313732   -0.29802289963178
C           9.99495380707562   -1.02505602700069   -0.67806894155399
C          10.79820147630121   -2.11264904187385   -0.96153100666280
C          10.80998227021466    0.15005269472595   -0.89644354786998
C          10.56077746334107    1.51249551846802   -0.79028447016071
C          11.58585016935043    2.38782090626016   -1.08761890054505
C          12.83703717919394    1.92229855637180   -1.48598923883616
C          13.10486413510274    0.57108178400643   -1.60124194432453
C          12.07915988031477   -0.31291836567316   -1.30228200544482
N          12.04226485929076   -1.70492525327420   -1.32934166025252
C          13.06747981848257   -2.56658724759160   -1.66334532379742
C          13.07730493004558   -3.93320726063508   -1.77143901724921
C          14.40033449222533   -4.27873557498635   -2.13554732251355
C          15.08943132491484   -3.11142835881190   -2.22130695622982
O          14.28678436309468   -2.06502478714793   -1.93556193748729
H           4.40696165827349    1.38164560373189    2.20138604574146
H           6.85982827807002    1.27599831304676    1.86288196051120
H           6.31944734073826   -1.61493225004249   -1.23526437595195
H           3.85766284703242   -1.50861604004041   -0.91229898721584
H          10.54024665226997   -3.15099963081397   -0.90459883145179
H           9.58800026963369    1.86090868553812   -0.48249491400598
H          11.41957257039974    3.45199816589378   -1.01251435484104
H          13.61786548764051    2.63287128607982   -1.71217526325788
H          14.07652072489954    0.22649885215948   -1.91330317807665
H          12.26110052407475   -4.60690903015660   -1.61813841173113
H          14.77757703285404   -5.26509963209768   -2.30819862167439
H          16.10824028798255   -2.88875020489718   -2.46499102956033
