35
         -61.084380817602          0.000690035809
C          -1.16090687215495   -0.06985326747686   -0.25540372882486
C          -0.32384085116625    1.00029009065273   -0.07842858978420
C           0.91107002896337    0.42732158827374    0.27493176652303
N           0.82883655182649   -0.88171873000112    0.31145218780456
N          -0.43231172823646   -1.19115527412516   -0.01166223234795
C          -0.83700285186520   -2.52327462281732   -0.05609081011922
C           0.09779428948216   -3.51402019485444    0.25634233778437
C          -0.25761944683510   -4.84068083975052    0.21276723961146
C          -1.56568261580060   -5.21338287021286   -0.12409745115081
C          -2.49920629832967   -4.21399947071199   -0.43576630765873
C          -2.13847495467817   -2.88696596859671   -0.40813545359289
N          -1.82846259843187   -6.55959686924014   -0.19734014960193
N          -3.05491714601846   -6.90751007241284   -0.21012766321309
C          -3.28322420320661   -8.23753165719610   -0.38177915480257
C          -2.37974345829267   -9.29699581349157   -0.70356606408108
C          -3.16699607374316  -10.40509763064264   -0.78373156257759
N          -4.52544410503961   -8.70551686534242   -0.28252885949515
N          -4.44685829499776  -10.00576878748120   -0.52080144142644
C          -5.57424737649435  -10.79637167430189   -0.48353146483550
C          -6.84637444837930  -10.39477391986967   -0.19116311138210
C          -7.76479451007653  -11.46362191225353   -0.24096175655995
C          -7.18558899330638  -12.64695489219294   -0.56673129453711
S          -5.49058145384502  -12.49617189511482   -0.82500461826171
H          -2.19492325591991   -0.09769454999884   -0.52866511239537
H          -0.55668716421321    2.03963076629933   -0.18512499599902
H           1.83659895711275    0.91868520074249    0.50039514499867
H           1.09641432738181   -3.20723168693112    0.52272752761648
H           0.45535298857720   -5.61362377317557    0.45332497994175
H          -3.49925153420351   -4.51481953444137   -0.70879065807985
H          -2.87043117792516   -2.13595292907797   -0.66126751232623
H          -1.32425096055623   -9.20751374900942   -0.84934382269828
H          -2.94019183580095  -11.43018861264757   -0.99983985938469
H          -7.08895937565096   -9.37642821194141    0.04644974489536
H          -8.81515768420322  -11.35368280975890   -0.04118528376109
H          -7.64276587397176  -13.60999856089928   -0.67417197027852
