35
         -66.730256539944          0.000803391279
N           1.21810169491420    0.18815238956326    0.20888188219110
C           2.35704701326555    0.14031131873794    0.07819952248124
C           3.75788924354606    0.07949673363022   -0.07917713092108
C           4.56199765247663    1.11501589371401    0.41222075560779
C           5.92522007316183    1.06163141593457    0.24857188014956
C           6.51987288259299   -0.04110902325183   -0.38459056536281
C           5.70552235166338   -1.07566030141678   -0.87666150392646
C           4.34035480499198   -1.01313862923959   -0.73024594539412
N           7.86695218322265    0.01072170788463   -0.60279304940291
N           8.50077648783448   -1.08640058069986   -0.70009425350137
C           9.81706511924254   -1.02855361881012   -1.01504212985836
N          10.55502478604843    0.06284731758847   -1.18574281159560
C          10.63034423507655   -2.19626401991779   -1.18830255935867
C          10.53234159127583   -3.58607900155188   -1.15980800426045
N          11.58712387375930   -4.32924269174752   -1.39195281925598
C          12.76451323377083   -3.72615750881438   -1.65946834603614
N          13.80455509672294   -4.54095877482816   -1.89655410567043
H          14.70808966401076   -4.14243192025942   -2.07496366975388
H          13.66962628524197   -5.53294609060651   -1.84014080359091
N          12.99265436768783   -2.41269107295568   -1.71616511433233
C          11.91644474636696   -1.68418113102060   -1.47916805439906
N          11.80522968435428   -0.31932161571885   -1.45782584516460
C          12.78981319773285    0.62257257618958   -1.66369967240222
C          12.70341258510482    1.98945499264170   -1.65233068151190
C          14.01424966208835    2.44442825638096   -1.92176923926494
C          14.78137297171091    1.32977459001844   -2.07339371745446
O          14.04199667461576    0.21534852566351   -1.91722601238446
H           4.09947664529624    1.95434281495444    0.91042431236849
H           6.56273244114171    1.84790781327017    0.62147705432531
H           6.17769126308810   -1.90339974254479   -1.38425004116455
H           3.70901306998157   -1.80449058376169   -1.10795743530505
H           9.60615699071357   -4.10231015193275   -0.94804955439414
H          11.82039808377537    2.56523699132640   -1.47512301673277
H          14.33655701364711    3.46250799397871   -1.99218131318186
H          15.82286232987563    1.19640512759925   -2.28570801154256
