37
         -65.037651123350          0.000707206762
C          -0.73154104641514   -0.09469478635143   -0.41195690495976
N          -0.02151362773505    0.97221386828024    0.01558884464243
C           0.82992657906555    0.50784893421901    0.88924084474694
N           0.70019783002009   -0.82659266540646    1.05718404803398
H           1.25117193373354   -1.41471473569804    1.65951428247047
C          -0.30599610073152   -1.24834319795568    0.21923779266000
C          -0.75210073872096   -2.61608932720820    0.10939888563979
C          -0.35081191470701   -3.59643485258110    1.02546835506480
C          -0.79029758010254   -4.89434975010968    0.90732261569063
C          -1.64783575440783   -5.26210335366167   -0.13629591894206
C          -2.05257882430708   -4.28286058638287   -1.05822611208314
C          -1.61367570918366   -2.98859604537493   -0.93253644068613
N          -2.02565695017779   -6.58387823925884   -0.17103467758535
N          -2.82687299356211   -6.91592251787876   -1.10401180016597
C          -3.15221626013116   -8.21839542479526   -1.24759122413310
N          -2.42579963995801   -9.26375644103023   -0.86260877536402
C          -4.29709858517148   -8.67202086088988   -1.98349333772378
C          -5.41845411242728   -8.18088467504036   -2.64262464623157
N          -6.26618147378561   -9.00460590504545   -3.21620929034859
C          -6.03522290730153  -10.33126461055147   -3.14407840399822
N          -6.94926349052226  -11.11591299427030   -3.74502766646548
H          -6.82120025793800  -12.10990567713893   -3.75023179848613
H          -7.71256269087078  -10.68376848440733   -4.23047026632413
N          -5.01202551732118  -10.93540954611513   -2.54103200462636
C          -4.16598284978434  -10.08379607357299   -1.97307850856258
N          -3.02800072306860  -10.37182685826842   -1.30258935069525
C          -2.45953002471782  -11.66961625113081   -1.08831110976049
H          -1.51270527442821    0.02928851679250   -1.13403957362232
H           1.55008199687780    1.10026805901756    1.41772046625957
H           0.30055037425724   -3.33913765971932    1.84891508138543
H          -0.48600410536801   -5.65302717554021    1.61149650249033
H          -2.71345311677105   -4.57375866127075   -1.86060093203045
H          -1.92477484546923   -2.24238289689519   -1.64715392979203
H          -5.63876705313478   -7.12467199048458   -2.71965645756561
H          -3.10959525892955  -12.39796270113352   -1.56838819643455
H          -2.38963470806439  -11.87571426308623   -0.01903151463473
H          -1.45836457874070  -11.71488017005517   -1.51946887786253
