28
         -52.780723039098          0.000543749405
C          -1.13115153357797   -0.00848731739236   -0.26982432823015
C          -0.22600842022806    1.05393626670034   -0.07233434030406
C           0.94907369785373    0.47727600119336    0.30745980669868
O           0.83180194809065   -0.85490375606016    0.35609705523765
C          -0.43972343587199   -1.16713287224808    0.00533366858113
C          -0.84044318375735   -2.55429034642238   -0.02826362174243
C           0.08928161904460   -3.56130164289528    0.26109864890455
C          -0.27546066320916   -4.88539586793771    0.21682532781245
C          -1.59127733172739   -5.24620449782806   -0.10281881540678
C          -2.52672841088619   -4.23829869456114   -0.38886121861146
C          -2.15410293461512   -2.91759631752805   -0.35491383983735
N          -1.86150172015992   -6.59128588977576   -0.16635640916117
N          -3.09021091040841   -6.92487285072126   -0.24294598096847
C          -3.32300521855312   -8.26097439523533   -0.37911371663834
C          -2.42206685225995   -9.34747240270013   -0.56859703896363
C          -3.22209653798046  -10.45585592915274   -0.66662647147064
N          -4.58463613249560   -8.70420803929026   -0.36755286833270
N          -4.47565751418189   -9.98341286142572   -0.53459614650883
F          -5.59342725707377  -10.75763442547570   -0.56941519831052
H          -2.15310371832400    0.07701028223540   -0.57610105939340
H          -0.42068102046423    2.09945290348948   -0.19573648176084
H           1.90313301424109    0.89607561689774    0.56070523390306
H           1.10075950902012   -3.28195778924009    0.51388734299127
H           0.43519872672523   -5.66681353614812    0.43788053931915
H          -3.53352413947595   -4.53364228766298   -0.64253451278203
H          -2.87768130019780   -2.14953050558563   -0.57984899282538
H          -1.35574055029165   -9.28663446166087   -0.62495212197003
H          -3.01829972923615  -11.49621438356922   -0.81276446022967
