26
         -49.618038510980          0.000552462810
N           1.25266798706203    0.26545010449998    0.39038148859767
C           2.38963253155238    0.20836546997040    0.25104977788988
C           3.78977937016214    0.13619156005475    0.08332572752865
C           4.61833838685829    1.05779771456061    0.73403314717892
C           5.98059534036500    0.99582306408052    0.56031818241865
C           6.54491045743724   -0.00539277569540   -0.24479549591136
C           5.70645164415878   -0.92595030266352   -0.89573576097416
C           4.34287209383231   -0.85248878463280   -0.73713564965394
N           7.89753384503572    0.04299635491221   -0.44380938203187
N           8.48928454598689   -1.03504429592970   -0.75538770206617
C           9.81480597119828   -0.95869123757876   -1.04909497482268
N          10.57818724657007    0.12710838921629   -1.05416444988813
C          10.60331275704043   -2.10409670446157   -1.40614048816944
C          10.48359246008115   -3.47750491686607   -1.59779172208038
N          11.53888619207556   -4.18540137347454   -1.94737417193776
C          12.70515521957381   -3.56681466280902   -2.11161153944239
N          12.96418791830735   -2.28245836029843   -1.96946249851405
C          11.90160345980956   -1.56951625077639   -1.61741102028233
N          11.81071957627942   -0.23725270457863   -1.38861613651631
H          12.54651163713525    0.45110085876662   -1.44322062510338
H           4.17644314454175    1.81745473423988    1.36171798198638
H           6.63888201707787    1.69423736804234    1.05262314767470
H           6.15769210247625   -1.67216970680676   -1.53213213283232
H           3.69118604390820   -1.55482123928126   -1.23631436634831
H           9.55051969473936   -4.00928930145761   -1.47137321528147
H          13.53854835673535   -4.19306300103324   -2.39914812141848
