25
         -46.359057833017          0.000382474505
C           2.27608771069634   -0.93683589919972   -0.82034472189245
O           2.85250107038535    0.10481813117851   -0.06738818053148
C           3.49062456807302   -0.19506134410247    1.08808929017910
C           4.03621824738916    0.89342299401330    1.78104280803844
C           4.71018907233235    0.70196171930211    2.96092794220664
C           4.85231011668987   -0.58708649918485    3.49479008063478
C           4.30343553326789   -1.67257018213811    2.79892658698207
C           3.63496690840079   -1.48220787284717    1.61092386015117
N           5.55159834303445   -0.69191407955215    4.67321759965883
N           5.57930264527078   -1.84685723249840    5.21530144284154
C           6.31686339988480   -1.93626028084544    6.35851813981548
C           7.19388459102696   -0.99892657894938    6.97438908835215
C           7.68028937646247   -1.64491621465077    8.08096954083435
N           6.28871839929965   -3.07309286152530    7.06150756842120
N           7.09210162770103   -2.85492796981970    8.05438897735263
F           7.29349217093260   -3.82613406023692    8.98624268476881
H           1.82410308403144   -0.45730127993109   -1.68697851866859
H           1.50189336472995   -1.46159615547004   -0.25236928575728
H           3.03147191123520   -1.65363556734332   -1.15656378691487
H           3.91156754209848    1.87814099409266    1.35877856381374
H           5.13240145166227    1.53536252205194    3.50013800153032
H           4.42363475644497   -2.66070922936036    3.21614899708658
H           3.22743461087264   -2.33698611489790    1.09374832924198
H           7.41572501934304   -0.01321502549809    6.62445820821480
H           8.36435447873416   -1.36223191258784    8.85376678363996
