28
         -53.240374623777          0.000658067152
N           1.36439741660828   -0.06779502822552    0.51693749073394
C           2.49606300310739   -0.07307343420189    0.32995288791957
C           3.88901278879983   -0.08118211950467    0.10017826471330
C           4.65215076202085    1.05101689417156    0.40658138087397
C           6.00710380143957    1.04760246171037    0.17178243829107
C           6.62957234691451   -0.09457129599862   -0.35160742749438
C           5.85752298939075   -1.22691988676331   -0.65691197704277
C           4.50064865586280   -1.21921809915356   -0.43644122064264
N           7.96957122134085   -0.00392079427141   -0.63508943484011
N           8.62129681191753   -1.09615191181553   -0.70584408095521
C           9.91318333702116   -1.00003315582726   -1.09657299769761
N          10.66075338140454   -2.10150015446436   -1.10979798779205
C          10.69671688007367    0.12473764808826   -1.54987348925875
C          10.47549036541298    1.48514037858132   -1.75243693070771
C          11.52825997713239    2.24308540671759   -2.21606750455126
C          12.78434709824003    1.68228354768403   -2.48127476072607
C          13.03417363657497    0.34091506382337   -2.29365596448196
C          11.97179178442414   -0.42267191702575   -1.82585114150307
N          11.83593599131829   -1.74014788304824   -1.53025075735493
F          12.82074737653961   -2.67263193600571   -1.64389312336838
H           4.16660860897408    1.92268598255312    0.82033941290549
H           6.61360855543763    1.90884988941658    0.40640981072343
H           6.35524721880711   -2.08831280592925   -1.07580831015501
H           3.89902835094071   -2.08559328788793   -0.67043718781541
H           9.50756812636899    1.91267298786329   -1.54832266403884
H          11.38877449366092    3.30039653338167   -2.38269787038307
H          13.57548869335511    2.32080338262462   -2.84349646881841
H          13.99701632691082   -0.09974646649073   -2.49685038653158
