42
         -70.904593312032          0.000346835952
C          -2.56669366256965    0.17215654222888   -0.29651037701768
C          -2.51245421327825    1.49008605233338   -0.66996545100575
C          -2.60913893250397    1.46282571386798   -2.07187309477442
N          -2.71535533503731    0.23036430468813   -2.51205104963979
N          -2.68846936980081   -0.56017512708365   -1.43364581149515
C          -2.78333350179174   -1.94390047490575   -1.57697051722979
C          -2.98862168851015   -2.46890806084297   -2.85521950729086
C          -3.10508820410956   -3.82560095521854   -3.03744041402835
C          -2.99540451748159   -4.70116062108545   -1.94864815381794
C          -2.78364214268073   -4.16673969024111   -0.66967645536356
C          -2.68435465574584   -2.80682087480143   -0.48502637149062
N          -3.19321007161923   -6.03640136876588   -2.19698643049460
N          -2.74411786137886   -6.86165350108245   -1.32859879440357
C          -3.04201683354927   -8.16945724501912   -1.52718680547644
C          -3.87359329764724   -8.76425083216950   -2.46185914410344
C          -2.52815357565502   -9.23664764342692   -0.70935389711319
C          -1.66142432925431   -9.27049132509327    0.37682894447897
C          -1.37992983839562  -10.49263499664428    0.94967542534612
C          -1.95599871027472  -11.66781062763345    0.46567691454406
C          -2.81722921883986  -11.65855953356036   -0.61348390238134
C          -3.08626782279629  -10.43354917351406   -1.20605553674212
N          -3.90451854284368  -10.11226264672000   -2.27805966881915
C          -4.64203935347845  -10.99586851090511   -3.04489858353106
C          -4.42530438841560  -12.29362354712572   -3.44024202480378
N          -5.45848158533080  -12.71706398742591   -4.20970766432775
C          -6.28734836126194  -11.71873906999573   -4.29353202231726
N          -5.84427694455184  -10.63668176562845   -3.60393147489126
H          -6.30271878604246   -9.74633515652061   -3.49875767279531
H          -2.53381811562884   -0.26979836220403    0.67731162237877
H          -2.41804686718130    2.34762721707347   -0.03625166872863
H          -2.60494431547924    2.28510212008012   -2.75939556086341
H          -3.05775005902486   -1.78246250789599   -3.68362265440040
H          -3.26277816479826   -4.24026496883129   -4.02083975493454
H          -2.71531177102517   -4.84667636921733    0.16607346921354
H          -2.52529953680265   -2.42002234446503    0.50961677468379
H          -4.42077178043000   -8.28401056705843   -3.25056190878186
H          -1.23046427018409   -8.35540849990440    0.75038797540455
H          -0.70771532602862  -10.54745767288480    1.79286456831229
H          -1.72408374205250  -12.60586674899980    0.94713376261064
H          -3.27078690140025  -12.56864504955595   -0.97159429136622
H          -3.58979591935649  -12.93161824335668   -3.24120331706918
H          -7.20866748576222  -11.72791388048982   -4.83919947547418
