27
         -52.705757386741          0.000619670817
N           1.13291589808013    0.05795534621357    0.35216360449271
C           2.47243458702864    0.05422273751383    0.12654181574240
C           3.30410449524758    0.99686310080637    0.75091893107233
C           4.65997099786830    0.96829401008181    0.55245178627121
C           5.24168582446215   -0.00451833749463   -0.27846711093549
C           4.40520545719519   -0.94972132094295   -0.90546463155797
C           3.05189171241381   -0.91850155369427   -0.70597702904136
N           6.59611928062952    0.04448262633487   -0.41507956476761
N           7.13482738309892   -0.84587193274421   -1.16884246607066
C           8.48424682968537   -0.75954968393122   -1.26693852992042
N           9.14874453724178   -1.61288831652594   -2.03019241090834
C           9.41421416730549    0.15489829197438   -0.64635064460583
C           9.43504542365349    1.23822689113773    0.22544059699197
N          10.58150956549329    1.81046393333833    0.54195186414671
C          11.70526221359730    1.33220716371586    0.01659936275583
N          11.84115902734574    0.31692657343333   -0.81272752018433
C          10.68734770930053   -0.25418112054630   -1.12929159451926
N          10.42516196254893   -1.30154744060518   -1.93458008275365
F          11.32987688340051   -2.03586918097113   -2.63588093131127
H           0.71220688419576    0.82978004392572    0.83741944729940
H           0.53608179561861   -0.53761988338185   -0.19363350748954
H           2.85967116002314    1.74545644578446    1.39095068616791
H           5.30412144261912    1.69108316905119    1.02863013825214
H           4.86366964035945   -1.68957906121444   -1.54334043557861
H           2.40991796606642   -1.64284456747028   -1.18729629122798
H           8.53505228491849    1.64321048035683    0.66607570815606
H          12.61834487060265    1.83492158585411    0.30490880952373
