32
         -51.532906728870          0.000300567316
C           0.99291580127619    0.06322549594504   -0.04025841723673
O           2.37627673426838    0.00935242588673    0.20811671806731
C           2.94307939163806    0.98602819057405    0.96703734774783
C           2.25470153516991    2.05305929646987    1.54010491662070
C           2.93790126805070    2.99517089656170    2.28134368677571
C           4.31522621492141    2.88823322860111    2.48765545646158
C           5.00128379897892    1.80823266881396    1.90868114070968
C           4.32576610656738    0.87970192995582    1.15822142311916
N           4.91780983311410    3.89678912297240    3.20452233490812
N           6.10301281762740    3.66278215557384    3.62522695632937
C           6.73900424752130    4.68385826159955    4.25556241867274
C           6.39721736125279    6.02312116600107    4.36963106011430
C           8.00317616032704    4.53097742966788    4.92618762045449
C           8.84434058457018    3.44823394241660    5.15947077358310
C          10.00752793616454    3.66467611230524    5.86751188155768
C          10.34358679786975    4.93277879701141    6.34611468717973
C           9.52490307072514    6.02213633121548    6.12893189354597
C           8.35393617199108    5.80823958000323    5.41604909371667
N           7.36162233700846    6.68476611676463    5.05378660703520
H           7.35979720207534    7.67118700568446    5.25680745717748
H           0.77129954307523   -0.80117995888034   -0.66439710711321
H           0.71584768563651    0.97661999116015   -0.57663844291541
H           0.41457161392819   -0.00339405325304    0.88701392027549
H           1.18873529614543    2.15928863353944    1.41041409250173
H           2.41108468785439    3.82403352337437    2.72894563378122
H           6.06791893384688    1.73708959155896    2.05812690408283
H           4.83939092508579    0.04931011140783    0.69852267623103
H           5.53158817936732    6.52265325435667    3.97991243913582
H           8.58072924141498    2.46987933831440    4.79028534768929
H          10.67785350220480    2.84014191976534    6.06056481153803
H          11.26295009381210    5.06151082016799    6.89793613055437
H           9.78349492650921    7.00305667446360    6.50012853769814
