35
         -66.385808859078          0.000851297668
C          -1.09920173613739   -0.09271490889839   -0.39918354100714
N          -0.30627822467724    0.99791103207702   -0.35247151231552
C           0.88866775175212    0.55987780463038   -0.06047922446781
N           0.90785115241874   -0.78107221582467    0.09905438382639
H           1.71161460491276   -1.35160951752472    0.30227625005668
C          -0.37124473132031   -1.23645979315171   -0.12173768737399
C          -0.76828668877130   -2.61942461155516   -0.04371208672833
C           0.05871905518386   -3.59089245776129    0.53645522105060
C          -0.33572416876621   -4.90639662605445    0.59714024630448
C          -1.57501079579760   -5.29876011979432    0.07548550014684
C          -2.41070307096807   -4.32856659618492   -0.50319884878024
C          -2.01263984449867   -3.01711214898660   -0.55680140014182
N          -1.86312428560001   -6.63927548509729    0.14904384967043
N          -3.00449435358473   -7.00693033370925   -0.24510798595443
C          -3.33441607385158   -8.30186321459841   -0.38571395624258
N          -2.58254986900876   -9.21051530267489   -0.97921663473107
C          -4.65621161203822   -8.82261178600184   -0.14340865366231
C          -5.86985091712887   -8.43799228995033    0.41417172869725
N          -6.88431505166820   -9.27308008642946    0.43876737469323
C          -6.72353424263564  -10.50704749748759   -0.07419879387537
N          -7.79048298413627  -11.31788178159000   -0.02759111730176
H          -7.71290401988392  -12.24769599592618   -0.39602497987113
H          -8.64089329584889  -10.98047745175949    0.38311614285889
N          -5.60869353568733  -11.00188632322809   -0.62523515724160
C          -4.61004093645570  -10.14331888379530   -0.64276782501155
N          -3.34855251075238  -10.32740109028102   -1.15395543133497
C          -2.89938993683904  -11.40532292929036   -1.77839543361647
N          -2.52360242735474  -12.34678071089201   -2.31050758705636
H          -2.14480135648527    0.00491541746163   -0.60946302143686
H           1.75760989250764    1.17830541201511    0.04425310567989
H           1.01372221916807   -3.31101595584548    0.95733706699774
H           0.29549942168083   -5.65971482964369    1.04187287293655
H          -3.36308672673931   -4.63993342691326   -0.90517605776869
H          -2.65319812539711   -2.27714342245763   -1.01041791481362
H          -6.03641257559321   -7.45676187287521    0.83755110781611
