37
         -64.559099185427          0.000475684686
C           1.13141813234545    0.24537798282667   -0.12771364043652
C           2.62491383216831    0.18344949329174   -0.19059277401590
C           3.41222760490275    1.20069839666420    0.33944728911103
C           4.78821889459749    1.13424628928690    0.27959440461237
C           5.41435880116169    0.04071672117341   -0.32758037204741
C           4.62347614526804   -0.98460677349267   -0.86814897674419
C           3.25265054225914   -0.90799941545398   -0.79260516096594
N           6.79116710896062    0.05681099677450   -0.33088497252059
N           7.36949519739683   -0.91195583325776   -0.91385001429486
C           8.70984369062922   -0.90502009821302   -1.05057259890419
N           9.47234697471278    0.17205310155641   -1.20041961261071
C           9.49759694985677   -2.09370529728891   -1.22969220546581
C           9.38544642803519   -3.47907104344096   -1.21181663403766
N          10.43874847277715   -4.23539418704363   -1.42988108928890
C          11.62963216591545   -3.64891940603507   -1.65980034500349
N          12.66790435872309   -4.47547617051697   -1.86933016823013
H          13.57451529609120   -4.08680700277867   -2.04967487429438
H          12.51350321041976   -5.46576577009028   -1.84621279892327
N          11.87525314537004   -2.33753725999961   -1.69769227783041
C          10.79896588623776   -1.60061907182835   -1.48003406034992
N          10.72195076616304   -0.24357392739515   -1.46934906495645
C          11.75555559317528    0.62646650164769   -1.71643572194747
C          11.70970835844837    1.99143455022275   -1.71234517969820
C          12.96877030782525    2.55781266634407   -1.99657267496023
C          13.93183956432323    1.62402752717578   -2.20604883649322
S          13.33519479750275    0.01113566299514   -2.06594852792773
H           0.79816438426744    1.10869667125413    0.44224961890455
H           0.73270397309805   -0.65642865876664    0.33498225122578
H           0.71574552918239    0.31148136915140   -1.13308949555636
H           2.93700145238066    2.05141814501489    0.80683653661564
H           5.40592902774989    1.91831555223679    0.68881585036953
H           5.11448715325197   -1.82817739739715   -1.32953335488977
H           2.64570723316674   -1.70266357921367   -1.20388066217733
H           8.45040910721095   -3.99115946988503   -1.02918139545416
H          10.80962280383785    2.54134692482312   -1.51239055181030
H          13.14525907396995    3.61739873826560   -2.04004595204176
H          14.96685803661780    1.77989307139222   -2.43499195696146
