36
         -62.483010233725          0.000968169230
C          -1.20145662741314   -0.00064631371062    0.22196176778001
C          -0.28076357708000    1.06621833797874    0.26199846056751
C           0.94659168837107    0.50747635481517    0.06763113556630
O           0.84667685339964   -0.81844926736486   -0.08749325246396
C          -0.46582933811765   -1.14385221834208    0.00525613932551
C          -0.85801026293148   -2.52781807252750   -0.12999701418796
C           0.10981280132970   -3.51363977446736   -0.36169929447585
C          -0.25131080871280   -4.83109164388323   -0.50893021567626
C          -1.59637771729831   -5.21239321311764   -0.40828995878827
C          -2.56777506222515   -4.22577445044372   -0.17233736596978
C          -2.20333038763986   -2.90877789132554   -0.04045518755841
N          -1.88108513550862   -6.53729550155911   -0.62029587742382
N          -3.03371023314881   -6.94811726140121   -0.25262789186313
C          -3.32816279059852   -8.24471797917686   -0.54019835098601
C          -4.50312064681106   -8.83201118329718   -0.13659522517548
C          -2.58449968423313   -9.25279592584463   -1.27548129228852
C          -1.35481878217035   -9.26386279726249   -1.92218223893224
C          -0.95225781505764  -10.43406713964320   -2.53624640358150
C          -1.74671858587088  -11.57900420813985   -2.51722189336827
C          -2.97500439394368  -11.59055988689267   -1.88228275357424
C          -3.37358219797018  -10.41641859158848   -1.26852244457084
N          -4.54475561607509  -10.13761121183452   -0.56445951765036
C          -5.52678987121937  -10.99431187533879   -0.35047957804447
N          -6.37451104292668  -11.74369874912265   -0.16786288148369
H          -2.26319065450570    0.07312015088045    0.33637092801342
H          -0.50014790303804    2.10349171482367    0.41237745894000
H           1.92907921614447    0.93457071330083    0.02073134574312
H           1.14703368199194   -3.22252669828396   -0.42973068995730
H           0.49127708792450   -5.59418950984059   -0.68590282505181
H          -3.60235607933747   -4.52909876581396   -0.11279749783624
H          -2.95857906379074   -2.15805933495779    0.13451467827959
H          -5.31055737350709   -8.40985924807740    0.42987700288798
H          -0.74461395872937   -8.37563759459726   -1.93503659111566
H          -0.00020603077122  -10.46715708258902   -3.04454010545996
H          -1.39762881398667  -12.47457628354392   -3.00838465760970
H          -3.59849087454910  -12.47162759781141   -1.86378791201126
