36
         -62.130587057580          0.000716732189
N           1.47197659965122    0.02752095469670    0.87623141670415
C           2.61136410451538   -0.03547336921051    0.75277617297050
C           4.01017380044466   -0.11448303791526    0.59741656578040
C           4.85074945356026    0.67632301518048    1.39047939042997
C           6.21275817930991    0.61247239082497    1.22539547844419
C           6.77268867160384   -0.26463958262421    0.28312080273056
C           5.92238840891004   -1.05857308218390   -0.50549553485830
C           4.55898252944989   -0.97960707106502   -0.35490123367977
N           8.11654000131237   -0.19589124944655    0.05868067917875
N           8.74852658874983   -1.24646821389635   -0.27792197644680
C          10.03345962862557   -1.09721657186669   -0.67770968325252
C          10.85849764919006   -2.17948963300390   -0.92401177546029
C          10.81095346774595    0.08325830575718   -0.98270096208706
C          10.53361095860196    1.44503365868595   -0.95816725008758
C          11.52489289020839    2.31839231601552   -1.35643902800769
C          12.76851510969768    1.85600838164578   -1.78634786778354
C          13.06510922982705    0.50735564334181   -1.81889392306524
C          12.07843524489999   -0.37222842161799   -1.40033592808393
N          12.07986454685108   -1.75892024741580   -1.34356442883243
C          13.14259866235584   -2.58657280261539   -1.66013977954083
C          14.49964990502104   -2.45732974797968   -1.49305215061093
N          15.12655655482717   -3.56122710142216   -1.96773825969028
C          14.19411093479656   -4.35005216763093   -2.41397963899023
N          12.95837608288776   -3.81201497574108   -2.25220041839172
H          12.07554859749117   -4.21204257427886   -2.52442872479829
H           4.41650566175223    1.33980919386177    2.12417916158252
H           6.87302836196764    1.21384091615960    1.83136138526413
H           6.36692889092030   -1.71356988087875   -1.24025439052965
H           3.90271461631097   -1.58591084917326   -0.96278609681977
H          10.63602862759135   -3.21987527975076   -0.78150139146495
H           9.56505025515542    1.79378119296980   -0.63751521350492
H          11.33590923269971    3.38124800157611   -1.34486793016226
H          13.51488703086469    2.56777823260596   -2.10527298031367
H          14.02152838399039    0.15410466949016   -2.17007106209830
H          15.05181589622000   -1.65862243186745   -1.04404921993103
H          14.36119524199307   -5.31179858122767   -2.85359420459373
