27
         -48.542686800602          0.000617969902
N           1.16265927575606    0.20104777112778    0.09520420683456
C           2.51890839021209    0.12367911264048   -0.00955359467549
C           3.34391116194273    0.88732712206809    0.82895116968572
C           4.70897515982740    0.77849912657223    0.75039167813130
C           5.30441124575028   -0.10127631056497   -0.16702213065248
C           4.47554176097615   -0.86961263234436   -1.00522117268454
C           3.11244911000164   -0.75732341011832   -0.92734276690558
N           6.67117042020298   -0.11183883794720   -0.19589777902673
N           7.23374694587982   -0.97320225467490   -0.93763282217774
C           8.56217743595914   -0.93365390372670   -1.15883967309748
N           9.27699908860709    0.16208558500322   -1.37883377802188
C           9.36616736442251   -2.09880684648248   -1.41835868200955
C           9.28303232124464   -3.48231634787228   -1.39234363052186
N          10.33351659637307   -4.21494444127765   -1.72327447647696
C          11.45874455802154   -3.59661658627119   -2.06412380868966
N          11.68672239573206   -2.29927850382536   -2.12616421577486
C          10.62848279366894   -1.56419094038083   -1.79944232117236
N          10.50679929457277   -0.22290461298887   -1.76927299097024
H          11.19002968523920    0.46914152396126   -2.03162092469698
H           0.75904398708485    0.95521132269295    0.62263185096589
H           0.59587143208268   -0.21532474541525   -0.62246827941911
H           2.88815338662656    1.56540821327373    1.53629824179924
H           5.35194388916817    1.36533681326673    1.38743577737750
H           4.93965499906147   -1.54088146061506   -1.71206410606034
H           2.47681372653918   -1.34491864419298   -1.57508828547783
H           8.38151063905296   -4.01341065310605   -1.11773563369137
H          12.29078293599369   -4.23748545880209   -2.32420185259127
