30
         -56.855487519304          0.000520233248
C           1.48965320836995   -0.00866258363045   -0.78510270434506
O           2.69624622576409    0.00521562641540   -0.05511246697820
C           3.20183426690928   -1.15355515387613    0.40930369862013
C           4.40224268619918   -1.04766467690200    1.12889224701157
C           5.00421447717277   -2.16381798922501    1.64762517326581
C           4.42737900425254   -3.43204160199155    1.46232809922892
C           3.22626146934953   -3.53345565272548    0.74105556641715
C           2.62124194311341   -2.41325567480664    0.22354055709425
N           5.09544997050980   -4.49044394589953    2.00960232856408
N           4.58184052244473   -5.65085947921851    1.83567461737774
C           5.30019238259005   -6.67190973843713    2.37131358613292
N           4.83611986318583   -7.89966944913617    2.30946264907917
C           6.59471133287048   -6.66036293044195    3.02301635092256
C           7.59487055823988   -5.77441745472123    3.40549342332817
N           8.67420026462448   -6.22704349844054    4.01722426972400
C           8.78128204212409   -7.52849938191973    4.25087143868770
N           7.91400215083649   -8.47613118735318    3.94301700831333
C           6.83437893320342   -8.01656663710157    3.33480430828602
N           5.74215020367268   -8.72305797319662    2.88427946945661
C           5.55570469665242  -10.03540394045129    2.97744021426977
N           5.41125490941120  -11.16663429152085    3.06099972776323
H           1.29611343715959    1.02924319750488   -1.05022468721950
H           0.66118914700145   -0.38874886355517   -0.18023490068444
H           1.58085854585985   -0.60442477864224   -1.69789986197741
H           4.82998433054732   -0.06618465100775    1.25852392763415
H           5.92639446872469   -2.08966259456160    2.20221987045231
H           2.79199373987779   -4.51253084230645    0.60705990350468
H           1.69796683771416   -2.51819715005716   -0.32467042703264
H           7.53127060145566   -4.71085184571706    3.22471459616103
H           9.68252778016637   -7.85429485707588    4.75128201693945
