29
         -53.135125150320          0.000509236995
N           1.34846560084806   -0.06888015704878    0.29647549037174
C           2.48767873221055   -0.07556004069215    0.16186403586560
C           3.88963230689226   -0.08618437163422    0.00005718234084
C           4.66171354832621    0.95267979371252    0.53166389888405
C           6.02703016200970    0.94534854594662    0.36739004755306
C           6.65041713491342   -0.11217314077470   -0.30905662929167
C           5.86973604092280   -1.14829284222475   -0.84459875622714
C           4.50328916176181   -1.13406865883391   -0.69412761493919
N           8.00646408743369   -0.02462129056625   -0.50702344584200
N           8.64050667265175   -1.11224234457112   -0.67752072352833
C           9.96330166785664   -0.99785916623384   -0.96888468928080
C          10.78362939327295    0.15738019165945   -1.15344200266233
C          12.02309213314642   -0.34145091986731   -1.41820725464758
N          10.68698582002515   -2.10640014750491   -1.12110842139394
N          11.91587138178995   -1.70438752046885   -1.38925841872560
C          12.92868973191043   -2.61580659415190   -1.59935778630617
C          12.90799669699123   -3.98302335846252   -1.58679220435421
C          14.23814214555545   -4.37826021994677   -1.86305305967618
C          14.95417650112265   -3.23270717474368   -2.01989793580425
O          14.16484789845633   -2.15055423200751   -1.86117737534329
H           4.17508611088356    1.75713886931615    1.06343136544059
H           6.63907527675618    1.73524479761462    0.77437642661052
H           6.36930040189147   -1.94160852163176   -1.37981498710399
H           3.89574245887753   -1.92870817024906   -1.10243822042377
H          10.46934910289412    1.17747973056358   -1.08881238595648
H          12.96131886684632    0.13263922497146   -1.62273508488835
H          12.05437583184088   -4.59963513965646   -1.40396004794930
H          14.60610784797471   -5.38052053259095   -1.93374004330990
H          15.98732728393769   -3.05142660992295   -2.23691135941204
