28
         -44.298592349425          0.000654037349
H           1.02003916495935   -0.03694598700686    0.10280432985594
C           2.09317547985097   -0.05483363136211   -0.01846430598382
C           2.86634584258610    0.97723387480170    0.49289397995843
C           4.23583957608015    0.96621674444516    0.32942625251433
C           4.85459729316344   -0.09826476672704   -0.33422730476217
C           4.06722022353165   -1.13600246953424   -0.84860693226783
C           2.69782526361108   -1.10632809346494   -0.69166689567304
N           6.21960906134977   -0.01566073347188   -0.51307633268038
N           6.82882720194413   -1.11158520533544   -0.75056191171566
C           8.15829759468066   -1.03147178982627   -1.01390721345415
C           8.97843628687699    0.07395111818725   -1.18995494055808
C           8.99648249916073   -2.18865549037159   -1.18672252569864
C           8.76868195413481   -3.55941621176270   -1.13096775854908
C           9.83413681244459   -4.40764262905622   -1.34614055576210
C          11.11406605426254   -3.91680458234579   -1.61224470502824
C          11.36494592654757   -2.56123254747011   -1.67271739909078
C          10.29495518730642   -1.70467545894700   -1.45819265250267
N          10.24144548595889   -0.33237017229620   -1.45575680854823
H          11.02530145072215    0.27585602792117   -1.62934425968401
H           2.39346733070403    1.79588040829832    1.01609281288665
H           4.85237349335084    1.75990348705863    0.72311324429647
H           4.55718268966359   -1.94080693743997   -1.37612565270730
H           2.09243229205838   -1.90598800596364   -1.09451146819860
H           8.71196491721570    1.11221697511622   -1.14668606800673
H           7.77950311913190   -3.93499875325140   -0.92301557354274
H           9.68301866775990   -5.47629487054235   -1.30878196305956
H          11.92294203418163   -4.61377932422971   -1.77305685592935
H          12.35486709676197   -2.18091097542302   -1.87751053610870
