37
         -65.382077761768          0.000931268538
C           1.00790821127725    0.20300260092055   -0.10560956588519
C           2.50155458053853    0.14658842708925   -0.17100961120913
C           3.28532216995376    1.17334790576691    0.34593174406699
C           4.66147483343714    1.11201391805799    0.28435922507545
C           5.29170811989215    0.01474711926799   -0.31214381844989
C           4.50414354206597   -1.01996394283681   -0.83962832995879
C           3.13303409486449   -0.94872802997095   -0.76201017876420
N           6.66834505683288    0.03687966401475   -0.31570258424350
N           7.25111421790491   -0.92704917962023   -0.90278917699373
C           8.59320621384133   -0.91199210708733   -1.03414885273311
N           9.35002598043712    0.16794612724341   -1.17703906974766
C           9.38849316488374   -2.09350350494953   -1.21632133204990
C           9.26468179646677   -3.47784040841561   -1.19851891606156
N          10.31073409001100   -4.24321656407461   -1.41556931397895
C          11.50368173496232   -3.65855879280911   -1.64273317789626
N          12.53785800396724   -4.49003125428586   -1.85953607188445
H          13.44999567962856   -4.10430729699601   -2.01623001321561
H          12.38361275127318   -5.48000195241831   -1.82263503407161
N          11.76066496066238   -2.35008366475318   -1.67667968485353
C          10.69296580066944   -1.59999566922729   -1.46304809675785
N          10.60595130656075   -0.23795381649440   -1.44570634094102
C          11.59435288661063    0.69155973461239   -1.68243371468483
C          11.52398286026249    2.05865325928278   -1.66798001322766
C          12.83385634805859    2.49983534986217   -1.96782151296671
C          13.58530455868229    1.37823381109361   -2.13696429790043
O          12.83603633782212    0.27041064595029   -1.96530055095299
H           0.67255074312021    1.06598071333300    0.46369642394300
H           0.61295889286896   -0.69952576794652    0.35875299459240
H           0.59031733597579    0.26664652213692   -1.11040210936711
H           2.80694414202783    2.02699674994914    0.80474632027018
H           5.27687542527492    1.90322297253013    0.68322936408605
H           4.99820166731563   -1.86647851546648   -1.29216986786469
H           2.52874997110395   -1.75070146979311   -1.16288472444645
H           8.32409408703026   -3.97990574196947   -1.01578048471365
H          10.65182595981990    2.64360959924546   -1.46897341932502
H          13.16548608797722    3.51471991676085   -2.04420190577552
H          14.62057638591817    1.23265264199826   -2.37039430111307
