43
         -78.116666527254          0.000604071268
C          -0.64613751066535    1.16522599384709    0.12991831811281
C           0.66462394328599    1.01787545918983   -0.02226833893700
S           1.54913640124047   -0.50584557031235    0.10891784134827
C           0.16216289004537   -1.55429365358858    0.42190162072802
C          -1.09703540426698   -1.15140172255106    0.54541025146626
N          -1.55799101343230    0.15718854113834    0.43092018531043
C          -2.90163803235855    0.45073759028500    0.61664012888678
C          -3.66930469474479   -0.27010377371605    1.54351725893334
C          -4.99398388503108    0.02974345120320    1.73995440562748
C          -5.61155937658633    1.06422706025750    1.02089180629947
C          -4.84533200627586    1.77283194627873    0.07717098816546
C          -3.52216239745588    1.47398092755973   -0.11753655398539
N          -6.93338592263154    1.28952725309416    1.28182413796249
N          -7.44939959796469    2.33072919684086    0.74283156085632
C          -8.77503883917803    2.53290426368784    0.86660270655476
N          -9.70464229610029    1.60611882499687    1.07472731723580
C          -9.40189117767918    3.80717670158047    0.65252502442222
C          -9.06788852793017    5.13149175038641    0.39418492523939
N         -10.00647569528300    6.04213579803009    0.26609926933497
C         -11.29482425875759    5.66879544041995    0.40036761750310
N         -12.20690908902308    6.65130534809667    0.28461832599510
H         -13.18187990582597    6.41805479442412    0.30522167132677
H         -11.89673862812183    7.56861917247967    0.02418616609019
N         -11.75139231973839    4.44031998187674    0.64867069879001
C         -10.78744816399195    3.54034226582213    0.76997538409313
N         -10.90932218973767    2.20641620509537    1.00956540940954
C         -12.05940333665582    1.46827669614693    1.16515638033573
C         -13.39292776884457    1.79755838041331    1.14027945246568
N         -14.13006345492413    0.68139004829323    1.36331584493001
C         -13.28251903310763   -0.29682066547878    1.51957381256732
N         -11.99873137608107    0.12531914585677    1.40943012874884
H         -11.13625702190470   -0.39078027531259    1.48287855142693
H          -1.07368101362831    2.15423118999467    0.06720354460619
H           1.30240070065543    1.85805201883826   -0.23050572542439
H           0.42732578465342   -2.59396913182605    0.49119351198026
H          -1.87215489035693   -1.88738823118342    0.69741724988548
H          -3.20657318574755   -1.04245660091812    2.13959571927558
H          -5.57962873721481   -0.50904737039613    2.46811584555964
H          -5.32961367379527    2.54791949883750   -0.49708044498082
H          -2.96378840647390    2.00955649113149   -0.87138161236936
H          -8.04535925471632    5.46611833357611    0.28253397512556
H         -13.83805514898740    2.75620186727764    0.97921567360349
H         -13.55180248466278   -1.31530464167538    1.71211996549188
