27
         -48.782494575970          0.000781700464
F           1.05059126905989    0.15383645999983    0.03273510730248
C           2.39385126789680    0.11616817291098   -0.08122911249889
C           3.14014704951601    1.16059085699074    0.44075066507901
C           4.51268252264267    1.12109425739476    0.31716957266417
C           5.13660515748408    0.03825595420700   -0.31390322569148
C           4.35293510379674   -1.00192973913995   -0.83663027217866
C           2.98103064155667   -0.96398993788022   -0.72231132664273
N           6.50873094424519    0.10515403415874   -0.41985900246825
N           7.09898388128883   -0.95989770519518   -0.79162876863425
C           8.43457850773066   -0.90363125564887   -1.00880081876737
N           9.17220811761738    0.19154238281079   -1.17462599593439
C           9.25226456118256   -2.07290783972414   -1.18600286693121
C           9.04801998150631   -3.44902466096620   -1.13629415396494
C          10.13070441912384   -4.26652520227980   -1.37070987746809
C          11.40117573326357   -3.74357226772227   -1.64391747731068
C          11.63048820007159   -2.38684231895995   -1.69400224622210
C          10.53829367822460   -1.55742611590533   -1.46148562212955
N          10.40927048068845   -0.20001895854117   -1.44455208253659
H          11.11792529518785    0.49100915915531   -1.63678157172596
H           2.63953082003896    1.98274010819015    0.92744325312116
H           5.13041931877675    1.91380249797755    0.70832940096473
H           4.84951841210234   -1.82151356287139   -1.33278604848647
H           2.35861205985542   -1.75148493444927   -1.11846039141181
H           8.06915873492972   -3.84844184525359   -0.92434187740540
H          10.00627399853957   -5.33878952678947   -1.34576105277954
H          12.21947692853730   -4.42591145214590   -1.81934781270058
H          12.60902291513616   -1.98228656032298   -1.90218639524271
