35
         -61.933840707463          0.000804749394
C          -1.14218117232358   -0.01148191608967   -0.25789224000511
C          -0.25762775825626    1.05621956127084   -0.00559424989708
C           0.90328956323179    0.48547192961035    0.42407859431571
O           0.79601089007163   -0.84786321198481    0.45291346117194
C          -0.45379841093838   -1.16741299095836    0.03727600804012
C          -0.83890004695583   -2.55721459075109   -0.03353780903904
C           0.08080632362493   -3.55968230036484    0.30018159545392
C          -0.27132238142815   -4.88575043427545    0.22610102197385
C          -1.55999052183708   -5.25435033782977   -0.18448117522800
C          -2.48632837693883   -4.24978194884136   -0.51329953959447
C          -2.12935822529906   -2.92726521926549   -0.43855221138915
N          -1.82039095316013   -6.60095203360983   -0.23932948348784
N          -2.99884353584993   -6.93581355183154   -0.61077864970921
C          -3.22851714908759   -8.27100157018411   -0.66095596865766
N          -4.41548039743156   -8.71889152883105   -1.04385370159104
C          -2.36910399710631   -9.38713643747578   -0.35486766383995
C          -1.07885244098215   -9.67172794989891    0.07449536230727
N          -0.69722338664973  -10.92694076646907    0.22561928969677
C          -1.56599918162386  -11.89767307746371   -0.03960745905727
N          -2.81203708648287  -11.77924327966403   -0.45238021360139
C          -3.19332622532797  -10.51425299037655   -0.60376876695436
N          -4.39734621785289  -10.04854414914523   -1.01174440688681
C          -5.54512702368652  -10.82703942365883   -1.37341473903933
H          -2.14913895421749    0.06828551805345   -0.61167309879288
H          -0.45600448195206    2.10126309560558   -0.12685799311084
H           1.84000764781364    0.91005958356089    0.72716371638215
H           1.07301459734717   -3.27439445687576    0.61493370234510
H           0.43240825692306   -5.66376387049177    0.47896583443197
H          -3.47487907126630   -4.55136648838915   -0.82448820950012
H          -2.84613198222190   -2.16206405576135   -0.69296687529358
H          -0.35359013717802   -8.90131380331598    0.29590491947725
H          -1.20559192351933  -12.90791115797128    0.10142355255787
H          -5.26643888814180  -11.87697898533155   -1.31290414730180
H          -5.85856693964989  -10.57676356745663   -2.38746266051267
H          -6.36977041164519  -10.61818359353858   -0.69040579566582
