30
         -51.959198042770          0.000545235949
F           1.30058789690717   -0.18624459244727    0.80969680268725
C           2.61903377560168   -0.15418796647995    0.52410910506784
C           3.36485206499184    0.94130298793880    0.92749796370512
C           4.71001443661067    0.97521114164753    0.62617059604213
C           5.30877085537940   -0.08656603808786   -0.06139305917895
C           4.52736004559783   -1.18152772093114   -0.45793763778777
C           3.18134670404359   -1.21554255007371   -0.16821565316080
N           6.65047915970248    0.04777657223562   -0.35068636339547
N           7.24280222814377   -1.00395845944997   -0.77052899707514
C           8.54804062250653   -0.85950682673399   -1.09687762862098
N           9.22497611439214   -1.91974980726968   -1.52801870585256
C           9.41687231411976    0.29162627012233   -1.07325069216151
C           9.28947685804521    1.63546702401447   -0.73424953249171
C          10.40313232008938    2.43575672159463   -0.86256627046703
C          11.62613125296598    1.92650298241732   -1.31582627907864
C          11.77722721162870    0.60062444922495   -1.65634597569678
C          10.65475448351528   -0.21176650211832   -1.52991571836006
N          10.46351970922735   -1.54112376036084   -1.78355158156341
C          11.43139367304012   -2.48047676763145   -2.26578109472865
H           2.88610590457718    1.74601327915964    1.46304196247927
H           5.32175549597409    1.81153677853115    0.92618307977309
H           5.00639930649521   -1.98415781892398   -0.99718673795747
H           2.56052020768711   -2.04601778227099   -0.46713173946428
H           8.34426666808599    2.01901676863897   -0.38647325823974
H          10.33972995485694    3.48370987642062   -0.60978458492173
H          12.47083606835429    2.59415358662395   -1.39982228613002
H          12.72119466048441    0.21037878292864   -2.00456793117829
H          11.84713535433078   -2.14395313973515   -3.21792034696281
H          10.92727481625779   -3.43466095409611   -2.40328914292594
H          12.24408983638766   -2.59820653488906   -1.54505829235508
