36
         -64.829118712942          0.000729342492
N           1.20477488541664    0.16460589958044   -0.04875084283910
C           2.56796234257442    0.10116783315912   -0.08579768426236
C           3.34383416463273    0.95990260360847    0.70517326283597
C           4.71275252682123    0.86285925771210    0.70430269064508
C           5.36056856091027   -0.09975801119733   -0.08472922624138
C           4.58023143784585   -0.96077748988652   -0.87829728725177
C           3.21355711980287   -0.86050993652567   -0.87769046064185
N           6.72784406731285   -0.10380803329054   -0.03879143541920
N           7.32402818766897   -1.03943521459612   -0.66073961687856
C           8.66007939946191   -1.01872697447584   -0.81051981223624
N           9.40178459565088    0.06573852892733   -1.00517637093969
C           9.45843209352401   -2.20124942985698   -0.99662067996533
C           9.36622857172482   -3.58574349287479   -0.94898934694513
N          10.41998987112244   -4.33425220812666   -1.20001897344151
C          11.58986865178531   -3.73653926620869   -1.49286934900523
N          12.62347653890213   -4.55275371805677   -1.77026590068762
H          13.53262674007121   -4.15101121465182   -1.90522517640358
H          12.50384784723116   -5.54074053567549   -1.64470720274428
N          11.81934842352305   -2.42334356607982   -1.55277795216808
C          10.74298078858110   -1.69544277453411   -1.30424126007903
N          10.65073601146678   -0.34118545999645   -1.31219404160777
C          11.66098441531259    0.53309218273182   -1.62763456747405
C          11.60130833132925    1.89683263629291   -1.66007492834926
C          12.83864753431163    2.46680276577455   -2.02353623899814
C          13.80021774867481    1.53719067708036   -2.25461460558288
S          13.22844269694960   -0.07728298797517   -2.03748586394391
H           0.77263402527007    0.97308338261928    0.36341734767035
H           0.68229666922823   -0.31784739641471   -0.75891045963384
H           2.84811347075849    1.70161178334963    1.31535041924958
H           5.31788453458146    1.52252839997919    1.30676681680354
H           5.08491936486554   -1.69526178740555   -1.48749923754647
H           2.61574249289195   -1.52191336167304   -1.48927021542587
H           8.44763386293818   -4.10660139907860   -0.71445145589579
H          10.70623695073090    2.44356819687044   -1.43109483108186
H          13.00050582159872    3.52647563708345   -2.10659684798911
H          14.82055925452914    1.69550447381313   -2.54045866552409
