35
         -57.956747711480          0.000860318754
H           1.15362531616401   -0.11408108324747    0.81181084364365
C           2.21901041194860   -0.13818019706762    0.63566625558398
C           3.04017497969693    0.81525146861236    1.21959712089665
C           4.39880024926921    0.79935483442476    0.98523473826842
C           4.96015437420310   -0.19536400371146    0.17697765456963
C           4.12472417164639   -1.15654961471626   -0.40618610020302
C           2.76554712981199   -1.11905904123179   -0.17833146731671
N           6.30986524279487   -0.10679743824128   -0.07348749236954
N           6.90851564434524   -1.17531355821804   -0.43189144855536
C           8.21757093941608   -1.04993069012693   -0.77096323562370
C           9.01134849746593   -2.13604978918166   -1.07209633627483
C           9.05647396451522    0.11945451539768   -0.91761543072103
C           8.82405298014385    1.48034746546159   -0.76278019374035
C           9.86928511848293    2.35127225919818   -0.99367084639950
C          11.12530646372739    1.88343518208599   -1.37437524924834
C          11.37724774340519    0.53427547504292   -1.53662298390491
C          10.33097584529185   -0.34592526583033   -1.30414794425718
N          10.27603165493030   -1.73363310019575   -1.38762267318049
C          11.29661556251042   -2.59791991313980   -1.72400808722688
C          11.29270368262869   -3.96097886319542   -1.86970879778182
C          12.61860906657785   -4.31280660604993   -2.21787800569205
C          13.32307451233168   -3.15287207342779   -2.25886683218194
O          12.52698589460376   -2.10422216800276   -1.95927049241133
H           2.61213611707163    1.57928290723734    1.85202666112314
H           5.05191382419006    1.53436834023064    1.43114485197772
H           4.56961063331017   -1.90514939750513   -1.04427037133549
H           2.12240797292559   -1.85601928624597   -0.63721394092437
H           8.73929698591140   -3.17222149011951   -1.06497612017847
H           7.84639358477678    1.82787085799507   -0.47071443985098
H           9.71578693951262    3.41414024067399   -0.87994518354378
H          11.92250621609963    2.59091840404083   -1.54801339097095
H          12.35302767385844    0.18757147128755   -1.83349954230492
H          10.46571391903336   -4.62810185084839   -1.74984729004254
H          12.98769178157064   -5.29859405850141   -2.41045545171422
H          14.34880490582808   -2.93599393288377   -2.47704877810815
