31
         -50.960257355665          0.000372263764
C          -1.15374888109042   -0.11457675224932   -0.04202901659443
C          -0.40751147062950    1.07428021616640    0.05355385872100
C           0.92404482863173    0.84667032389650    0.19831060505291
S           1.29311163161479   -0.82772739917308    0.22548996240128
C          -0.38854734065526   -1.25073426400694    0.03285099332753
C          -0.80077238944405   -2.63336859357372   -0.02353808539513
C           0.13265071189207   -3.66294516454099    0.15148865533985
C          -0.24458458762455   -4.98254948319612    0.09021203672966
C          -1.58402622584297   -5.32493050675420   -0.13353484910694
C          -2.52476638444207   -4.29921555850721   -0.31168265745241
C          -2.13811761169614   -2.98280860679870   -0.26029813718401
N          -1.87739136384276   -6.66367188369613   -0.24076388068211
N          -3.10915924598253   -6.98444272683121   -0.16993727719506
C          -3.38990027245437   -8.30299573988014   -0.35636533133698
C          -2.53828868802877   -9.41110053503400   -0.63035200940268
C          -3.38968946940911  -10.47641153394672   -0.72147127513636
N          -4.66062751396628   -8.70872454459378   -0.29406555355702
N          -4.64500966027042  -10.00517858539401   -0.51423721435818
C          -5.86512096452775  -10.75768262613789   -0.52339768769597
H          -2.22224593952936   -0.12172486994415   -0.15546335862904
H          -0.84325389464123    2.05683476244607    0.01648121973692
H           1.71760003970135    1.56096284373049    0.29278701869296
H           1.16710404890093   -3.40733135010302    0.33272847754235
H           0.47685838769189   -5.77313180246036    0.22745347273742
H          -3.55118320364740   -4.57583848615586   -0.50020242859626
H          -2.87545830101771   -2.20880963291727   -0.40763434923136
H          -1.47415745122118   -9.38809303886549   -0.73362885851972
H          -3.20880049104774  -11.51529181093937   -0.91468067412983
H          -6.67791013515694  -10.07084533358867   -0.29755882132646
H          -5.83468196609592  -11.54762242936821    0.22928213935757
H          -6.03158619616836  -11.20820488758289   -1.50398697410943
