31
         -59.953234944200          0.000418946744
C           1.40988558923283    0.05371091784867    1.20067815171829
O           2.43282655078424    0.24757181666767    0.25135621614298
C           3.11461599043017    1.41455454077178    0.24770822034990
C           2.89501790144146    2.47335946865008    1.13028555207679
C           3.65905061599000    3.61636897085499    1.03612942465739
C           4.65521951349671    3.73729386416897    0.06158520608898
C           4.86700940519812    2.66912591387352   -0.82937690463168
C           4.11183784122253    1.53058408049762   -0.73282449424283
N           5.35772974703603    4.91523266155961    0.05917691245920
N           6.28258110155321    5.03077900722718   -0.80362507935707
C           6.93191824598661    6.20366976853021   -0.93857185581203
N           6.41593581760768    7.41413748220078   -0.74053026508258
C           8.25274923427799    6.32586282265906   -1.48657015844594
C           9.31519183668082    5.53277239976603   -1.91196983277184
N          10.41337590469760    6.08142186628598   -2.37538706249915
C          10.50299477647092    7.42701245587569   -2.42290310791658
N          11.65369621254846    7.92442785344402   -2.90258622096882
H          11.77368007391345    8.91855690874911   -2.95887210162026
H          12.37090557245258    7.29039926431337   -3.20072558427749
N           9.57029396851809    8.30281356170027   -2.04395031922295
C           8.47169284141711    7.72645143195739   -1.58795384452163
N           7.33892099031349    8.28074174448132   -1.11727393972740
F           7.01513721408428    9.60896631033451   -1.15403405874970
H           1.01062188267970   -0.93975092159602    1.00322282639614
H           0.61213787010777    0.79385718474643    1.08644620455310
H           1.79941818558623    0.09071214972220    2.22263320866973
H           2.13261159388873    2.41001602408895    1.89060405838194
H           3.50035371502062    4.44254715923211    1.71130293100305
H           5.63646853005338    2.76699749966581   -1.57974901987791
H           4.26137093814175    0.69809441710607   -1.40275486600072
H           9.28271033916734    4.45210137461753   -1.88710019677109
