36
         -60.794834290028          0.000369955884
C          -1.20170426588145   -0.10433019394415    0.02503504365573
C          -0.48677348602901    1.10273233935982    0.13083427972308
C           0.85472791743864    0.90984666681712    0.22858332111319
S           1.27168066809537   -0.75318958243302    0.19958233312415
C          -0.40204705525824   -1.21895607924917    0.04467503031355
C          -0.77718349638426   -2.61023635361600   -0.04473644804807
C           0.17583000967502   -3.61955751457747    0.13944869392565
C          -0.17063673880831   -4.94632835850894    0.05416521780927
C          -1.49175997849474   -5.31704163308305   -0.22847406609050
C          -2.45278961088396   -4.30999104979969   -0.41096148199432
C          -2.10007903856319   -2.98678361417838   -0.32042718220960
N          -1.75371436035953   -6.66513914367736   -0.28742331833303
N          -2.93775485531615   -6.99008234374072   -0.65848598148730
C          -3.20285359070582   -8.31357237752063   -0.69778668150057
N          -4.39925102472605   -8.71840615093640   -1.12243334047462
C          -2.40267654983074   -9.46140677857538   -0.35099309086738
C          -1.11032349481772   -9.67526619926020    0.12175564879608
C          -0.71081402648990  -10.97712335561575    0.32634375576558
C          -1.56525965534462  -12.05958194579455    0.07777430834620
C          -2.84761852889561  -11.87686014557164   -0.38777623465775
C          -3.25142260146285  -10.56257812557290   -0.59837912476681
N          -4.42339857627493  -10.03549734777841   -1.05754071508349
N          -5.55721522255577  -10.75053660684649   -1.39371397341228
H          -2.27296273868942   -0.14082084644220   -0.05299060993280
H          -0.95146341249682    2.07270780129414    0.13391872411202
H           1.63031974556039    1.64422660086409    0.31860382581980
H           1.19814751902394   -3.34243351264708    0.35497112625837
H           0.56583624383495   -5.72241003782404    0.19503721773800
H          -3.46848819821721   -4.60690542478107   -0.62382299835136
H          -2.85094144542375   -2.22664975419026   -0.47255193113946
H          -0.45917882441424   -8.83807851534811    0.31293360155105
H           0.28636096925723  -11.17790249758024    0.68918623158241
H          -1.20435991773511  -13.06131119062433    0.25825714600458
H          -3.51570921459611  -12.70260291435605   -0.57444747562289
H          -5.45387581608498  -11.19327884613185   -2.30699167950190
H          -6.33729734814529  -10.09900496812992   -1.42712917216477
