29
         -47.964724659062          0.000270133839
H           1.28741438644560   -0.22370915093568    0.55791201398013
C           2.35655531044499   -0.21159935414605    0.40464209647882
C           3.13241136071382    0.76667875398984    1.00961317921508
C           4.49596179428127    0.79760571420878    0.80406907243543
C           5.10533632519876   -0.17210838847077    0.00000699472945
C           4.31540773375931   -1.15957626379770   -0.60399684737061
C           2.95202701736093   -1.17043884708193   -0.40268141284112
N           6.45812233059704   -0.04123590779071   -0.22243443778597
N           7.06791492266484   -1.08058621434524   -0.64577894911947
C           8.36885799460291   -0.91608490143251   -0.97729934217407
N           9.07534066612820   -1.97862566750185   -1.35896185853578
C           9.19549342988801    0.26176433040151   -1.04914745989830
C           9.02273501085500    1.62253515570687   -0.80689217988983
C          10.10252641919477    2.45142280352384   -1.01344788952258
C          11.33879759179874    1.95809282019477   -1.45201128569808
C          11.53654355307042    0.61890957681392   -1.70060751034825
C          10.44727393539120   -0.22050318810469   -1.49122865873881
N          10.29366371390790   -1.56694094934362   -1.65083615318959
N          11.28045412097714   -2.45828779878873   -2.02758037196967
H           2.66553787838452    1.51101766800190    1.63834875451882
H           5.11446697358102    1.55025108210508    1.26896366892386
H           4.80140362755038   -1.88949143541484   -1.23380184939746
H           2.34378676567248   -1.92745564583060   -0.87678846483781
H           8.06890377117800    1.99572602359615   -0.47105938040149
H          10.00236269221689    3.51179751917733   -0.83500610232105
H          12.15449834377122    2.65053542141019   -1.59820512965612
H          12.48519861980809    0.22962648689701   -2.03462651947301
H          11.44714556320573   -2.41782526642921   -3.03323423419061
H          10.96386814734874   -3.39311437661449   -1.78221974291915
