29
         -57.593437718536          0.000857891411
N           1.41879950626005    0.13306204709299    0.69153325968457
C           2.53647529137947    0.12132469526463    0.43669089816826
C           3.91434250966346    0.10973768494812    0.12383743273610
C           4.61407934304762    1.31455075890999   -0.00113576525218
C           5.95249975181802    1.29940731904298   -0.31931488991516
C           6.62124002403600    0.07920176556807   -0.48528121034510
C           5.91402079050596   -1.12594822778287   -0.35821924529201
C           4.57078925548450   -1.11058070977224   -0.06384752122102
N           7.93932090805326    0.13783160708472   -0.86659636611659
N           8.66974851603996   -0.85235116469112   -0.60503083410351
C           9.98462038058299   -0.84940901991856   -0.90987481456496
N          10.79224710202080    0.18520087732556   -0.77735912130546
C          10.73509871560535   -2.03963741074305   -1.20963935812429
C          10.54025274877941   -3.39398258679127   -1.46567598230768
N          11.56431838981477   -4.17489486362836   -1.71565724375792
C          12.80299619295729   -3.64452993213899   -1.73306221198536
N          13.80926388011028   -4.48698224841068   -1.99766017720936
H          14.74984806506717   -4.13740927729301   -2.01466090376064
H          13.60606431437850   -5.45642877499806   -2.15741777468160
N          13.12116579941011   -2.36284941717820   -1.51394718009132
C          12.07754365512677   -1.60232413065246   -1.25938684376304
N          12.06255157214435   -0.25771465763360   -0.97222470946664
C          13.11975574011546    0.53369744761964   -0.84889326804521
N          14.03848390974763    1.20955961075135   -0.75910508557393
H           4.09310534198658    2.24909743648536    0.14404949960517
H           6.51422655039072    2.21474502592319   -0.41876591297366
H           6.44168434989910   -2.05428591643840   -0.51725478630810
H           4.01647605192874   -2.03297148657382    0.02928100388775
H           9.56328134364876   -3.85759645137653   -1.46350088791781
