36
         -60.798975983842          0.000387521909
C          -0.55474911138587    1.13759583179474    0.67129015076529
C           0.75614847820781    1.01498553317719    0.50205380529624
S           1.56240732581026   -0.30460999847922   -0.35545174490036
C           0.11093228113293   -1.19638499253844   -0.82888245276648
C          -1.13503183276970   -0.86227572752170   -0.51574728926372
N          -1.52894197637968    0.25185911762420    0.21987572373330
C          -2.87310335971284    0.47862399224153    0.48992574004749
C          -3.74686039447970   -0.59477079830752    0.71409880767241
C          -5.07589400047410   -0.37295567816029    0.97690237997107
C          -5.58798233265782    0.93109060885093    1.03874000930584
C          -4.71188676380148    2.00587406267084    0.80625243072834
C          -3.38567624720689    1.78350968134318    0.53685805221817
N          -6.93040964225355    1.05657598629740    1.26973351620364
N          -7.35364988726902    2.23013941287264    1.54772041627695
C          -8.68794946835174    2.42551814127489    1.64344656326236
N          -9.64324142512695    1.68885559098406    1.08414786511647
C          -9.26990505270947    3.57301650886815    2.28720720509628
C          -8.78681759342891    4.65602716512642    3.01470827532960
C          -9.70067731752348    5.57177454541399    3.48667201832275
C         -11.07353108697218    5.42330911415411    3.25454508367548
C         -11.57722704272340    4.35742111633081    2.54279136862809
C         -10.65746882525051    3.43151555195906    2.06139005369660
N         -10.80515440062726    2.29166940429090    1.33057990217043
H         -11.65421310951420    1.90631556161773    0.94851574927155
H          -0.93502003017331    1.96661266220507    1.24855603723511
H           1.44438234735535    1.73507855645087    0.90675014069969
H           0.32590401809202   -2.06073564140450   -1.43108518734785
H          -1.95096941900457   -1.46046079780377   -0.89240432477989
H          -3.36719011165438   -1.60571636194270    0.71330400729907
H          -5.74749285598575   -1.19592275617917    1.16414161081044
H          -5.11446164360359    3.00733553205520    0.82307797774978
H          -2.73983998459200    2.62259524328876    0.32227098360558
H          -7.72851598838447    4.76505434848329    3.19155654556358
H          -9.35920703795282    6.42777991703688    4.04962416588646
H         -11.75221530222063    6.16662992827601    3.64617438906229
H         -12.63586120640916    4.24171963764779    2.36661002435835
