36
         -65.652084465068          0.000765726011
N           1.15387586790725    0.18478364998828   -0.04766938744310
C           2.51772797044494    0.13007299897598   -0.08453979200209
C           3.28813367884710    0.98843553531893    0.71185276821942
C           4.65755130083264    0.89814692768740    0.71175695000267
C           5.31135257259888   -0.05556531481648   -0.08312659098638
C           4.53652904239550   -0.91593986479217   -0.88241745162389
C           3.16925801440646   -0.82328708464214   -0.88175678323105
N           6.67895939244928   -0.05190393519913   -0.03330844828343
N           7.28318217405747   -0.97208727919730   -0.66839728609396
C           8.62075663479094   -0.94576487091212   -0.81047781091688
N           9.35846626867107    0.13829280846200   -1.00916898247439
C           9.42500701657194   -2.12394933627001   -0.98726546463004
C           9.31562209067054   -3.50675047735285   -0.93350235218949
N          10.36144340510390   -4.26924669620443   -1.17086867470026
C          11.53857459900994   -3.67851709146768   -1.45140250102959
N          12.58378769609154   -4.50630859913552   -1.64804200025518
H          13.45202008952667   -4.11526061701288   -1.96381155657157
H          12.40783359969293   -5.49192063659035   -1.70890844554907
N          11.78040316321396   -2.36981353371409   -1.53132707353386
C          10.71434760677258   -1.62286028801521   -1.29505830942109
N          10.61353642701588   -0.26391855619814   -1.31300006080998
C          11.57628715632152    0.66866239200024   -1.62725877967984
C          11.49261012497828    2.03473882125983   -1.64298000498977
C          12.77659192765810    2.47984041863952   -2.03663582276661
C          13.52783992205019    1.36163236062907   -2.22435581456837
O          12.80205114180436    0.25143805389242   -1.97750438077345
H           0.71666671000617    0.98851660857314    0.36795723615085
H           0.63549389734037   -0.29741536880941   -0.76151762156390
H           2.78825753350669    1.72428089095329    1.32564624016016
H           5.25854119539818    1.55719283950374    1.31878693393632
H           5.04498250127460   -1.64485525264123   -1.49530223297381
H           2.57529885135736   -1.48446331873160   -1.49792176186500
H           8.38625232516843   -4.01295782944397   -0.70879484147855
H          10.62870472117795    2.61685903880334   -1.40403554345562
H          13.09170704055320    3.49544087545995   -2.16002311915799
H          14.54762634033134    1.21868173100136   -2.51925123345252
