33
         -50.900192150950          0.000538600978
C           1.26195444021297   -0.05109222898141    0.72522513911771
C           2.73245547878869   -0.04695482706848    0.44459852763856
C           3.53469695397603    1.00055456293982    0.88991388535133
C           4.88395094168466    1.02665552074854    0.61210493257826
C           5.47383942297638   -0.01529886901729   -0.11171703908509
C           4.66929577569765   -1.07010337566382   -0.56329036081824
C           3.32041179830023   -1.07560609166336   -0.28813300504561
N           6.82209937511505    0.09807402561145   -0.37137332111565
N           7.40122194032555   -0.95074903386347   -0.81583738595086
C           8.71645451821360   -0.81912617642200   -1.11480881287570
N           9.39209197830406   -1.88588707817792   -1.52714131139543
C           9.59324281437748    0.32535872470946   -1.07967042394823
C           9.47028091931151    1.67230947070360   -0.75087073676398
C          10.59325249547487    2.46258735489535   -0.85681991980564
C          11.82177108090939    1.94119220185521   -1.28058395283421
C          11.96830297968077    0.61318459451552   -1.61394029363969
C          10.83658909525963   -0.18965586261043   -1.50873378088980
N          10.64172150317503   -1.51804746160645   -1.75876362908980
C          11.61218799493183   -2.46982902313618   -2.21003727634745
H           1.04960961015560    0.40738125003130    1.68862148486516
H           0.86719715718674   -1.06438288757656    0.71927451057853
H           0.73601100900303    0.52054288039603   -0.04075005888014
H           3.08839098525700    1.80392180437394    1.45915000369727
H           5.50838534271522    1.83526245121069    0.96032063206846
H           5.13312261692195   -1.86214881408935   -1.13141141627490
H           2.70455920238534   -1.89056762891284   -0.64291461227069
H           8.52074520488660    2.06595511830213   -0.42655723577733
H          10.53352309824600    3.51208769891509   -0.60902810399090
H          12.67422172723368    2.60119617760085   -1.34730560670429
H          12.91571819752509    0.21328912464736   -1.94177671090672
H          12.03709126273746   -2.15865581085236   -3.16637871906915
H          11.10726161384361   -3.42562858274993   -2.32928100965703
H          12.41771146518667   -2.57191920906585   -1.47976439275961
