31
         -52.266723709901          0.000422643703
N           1.24877526148757   -0.01122054675031    0.98448988328350
C           2.57379512405460   -0.01117814362989    0.64585183115069
C           3.40420716010111    1.05423778611007    1.01655967633629
C           4.74377109533606    1.03166512062473    0.71709572876201
C           5.30794224289753   -0.06202995442930    0.04446861038259
C           4.47388417751785   -1.13303853639449   -0.32150224580487
C           3.13476783392294   -1.10425296572856   -0.02988989328423
N           6.64689038254723    0.01476601763703   -0.23207721442862
N           7.18920827998444   -1.02664862312840   -0.74528427824087
C           8.50934362461138   -0.91715199566202   -1.06028041764099
C           9.24291949751713   -1.98258263117889   -1.51935147170287
C           9.40249590116193    0.22792373987075   -1.03585636038196
C           9.24739231892284    1.56294508777252   -0.68361364760814
C          10.34217802633068    2.39803388179931   -0.79334970528230
C          11.57462466563896    1.92924859401239   -1.24507482603447
C          11.75190182515491    0.60581904516326   -1.60378479947309
C          10.65272214947124   -0.22695291471563   -1.49130376437185
N          10.53696788007071   -1.58564922032873   -1.77899604234101
C          11.50884482270625   -2.35814965633830   -2.22539757918139
N          12.35927553310350   -3.02183622867905   -2.61369716946061
H           0.83131235563655    0.85751490787254    1.27087034066993
H           0.64218591080659   -0.67096712024995    0.52807510362372
H           2.97485892058283    1.89666417637428    1.54005275212630
H           5.38614410787613    1.85172124109163    0.99925799713653
H           4.91371831728036   -1.96803537361721   -0.84534388645577
H           2.49414768009113   -1.92605589637607   -0.31931367487735
H           8.93894485466813   -3.00007501659643   -1.67043048824959
H           8.29146188581565    1.91896801601420   -0.33579770077933
H          10.24602076017245    3.43942381568884   -0.52405563134567
H          12.40738869081306    2.61238127732798   -1.31781273434696
H          12.70182871371081    0.23390211644407   -1.95736839217696
