34
         -62.443665989858          0.000457370558
F           1.25807926070464   -0.19925272569089    0.71756614182194
C           2.58983384321051   -0.17442150687421    0.50686611705674
C           3.33155647434013    0.87156962122607    1.03331124642978
C           4.69058278078240    0.90219477998600    0.80454361117927
C           5.30735416833333   -0.11755786574396    0.06930914776048
C           4.53044220211051   -1.16457591688139   -0.44894938092125
C           3.17031273147344   -1.19204646185567   -0.23470393620103
N           6.65910341474276    0.01465311346927   -0.15904009508942
N           7.26803131346087   -1.03201677818924   -0.56620290191019
C           8.57176629719966   -0.87795834217565   -0.89320958781939
N           9.28797546935546   -1.95152517601697   -1.19693825344063
C           9.38360244753753    0.30864924328530   -1.03255224898911
C           9.17730157803672    1.67425233450403   -0.86707278542788
C          10.24012322021878    2.51598871214224   -1.11350837255483
C          11.48392280772565    2.02248886496309   -1.52001319801379
C          11.70996629388978    0.67363498065379   -1.69519491217197
C          10.64108962613438   -0.17823972874287   -1.44537588139664
N          10.51474418265463   -1.55029011186732   -1.52006929090668
C          11.45903838368317   -2.48815544215666   -1.87039314077691
C          11.34477723986333   -3.85086887738122   -1.93937113095894
C          12.61550321502912   -4.31261716839133   -2.35396058668614
C          13.39516352405657   -3.20891153461661   -2.50338863718337
O          12.69853607640226   -2.08905531982505   -2.21036006006476
H           2.83780307981081    1.64179055869303    1.60465404575982
H           5.30007138235888    1.69914922052191    1.20091129206560
H           5.02408864309873   -1.93350469427988   -1.02271621260411
H           2.55257889251631   -1.98357051241190   -0.62975851764684
H           8.21355050966224    2.04246798476074   -0.55511732506277
H          10.11680491216951    3.58190694082189   -0.99285544056916
H          12.28830705630208    2.71899852549323   -1.70391097144072
H          12.66851328292515    0.29824522449867   -2.01298230319729
H          10.46767394659201   -4.42063285703346   -1.71996342474240
H          12.90467165932624   -5.32993438216706   -2.51744524023768
H          14.41644008429021   -3.07982470271757   -2.79927776605980
