29
         -52.792117525103          0.000917362628
N           1.38671612315963    0.00899281608850    0.13428900360623
C           2.52901174768491   -0.00054271293459    0.02707826087794
C           3.93374630708895   -0.00903755507420   -0.10768280759128
C           4.69403073495201    1.02013692234599    0.45925223258750
C           6.06115775905820    1.02206114623115    0.31432761911876
C           6.69941867698753   -0.01651537902157   -0.37882680432648
C           5.93056563856159   -1.04657559275392   -0.94389935005437
C           4.56204503292553   -1.04086538441182   -0.81286380230559
N           8.05180633209288    0.09442891206644   -0.57248032436420
N           8.71561474927399   -0.97206485243456   -0.76248547879612
C          10.02975482300438   -0.80621551391955   -1.06904906372537
C          10.79810598127609    0.37851717324554   -1.27508427368299
C          12.05386725118911   -0.06962086192248   -1.56021321226715
N          10.79794464978416   -1.88473060480184   -1.22874259576944
N          12.00599251351995   -1.43236742724945   -1.52127637393047
C          13.04018200243627   -2.31600246014432   -1.74553571819292
C          14.37268191669686   -2.15185978705011   -2.04622607069634
N          14.95612304289310   -3.36739476723343   -2.16532114837878
C          14.02129067089871   -4.24981286524795   -1.94648165917855
N          12.82882295920917   -3.66520185503578   -1.68471416078941
H          11.93489119334112   -4.08225334015170   -1.47702736494539
H           4.19632307917675    1.81145757996415    1.00038595111827
H           6.66442860339563    1.80533355765939    0.74669690160866
H           6.44053639690316   -1.82609961168961   -1.48952851037073
H           3.96354288346029   -1.82896430533493   -1.24668258122273
H          10.44046473290133    1.38428056121080   -1.21157274495485
H          12.96383384096483    0.44748069759580   -1.78505055400292
H          14.93581967157914   -1.25164821147778   -2.18066916885948
H          14.16697068558500   -5.31046627851809   -1.96882620051186
