30
         -52.520146255671          0.000879552131
N           1.15160178326401    0.00599881230755    0.43018547089786
C           2.49198414405886    0.00688315918673    0.19588736723254
C           3.31672560585913    0.98168120927772    0.77639890458341
C           4.67277005980134    0.95782684056792    0.57276692984280
C           5.25945900839902   -0.04191578884275   -0.21959640093810
C           4.43023089850972   -1.02053964984361   -0.80108136805536
C           3.07689478824775   -0.99417384876570   -0.59682958774606
N           6.61444324570092    0.01806246345013   -0.37422451876145
N           7.15057252490960   -0.89708824197778   -1.09677113818677
C           8.50018262120963   -0.81713125672100   -1.22349438575504
N           9.11576176778649   -1.67331718191526   -2.01078567713476
C           9.45699831818673    0.08329298672393   -0.60633061389704
C           9.39307745109267    1.14798027976939    0.28541814300367
C          10.57674744350140    1.76791366278819    0.62857471550976
C          11.80371436017474    1.34865185828923    0.10711578139375
C          11.89218063142734    0.29058714703066   -0.77501007269250
C          10.70024255808936   -0.32867061942626   -1.11697408775522
N          10.43600894851328   -1.39633279597567   -1.96191841633331
C          11.34297706807817   -2.07131461078644   -2.64771187450627
N          12.16527076621800   -2.62742693333239   -3.22032157303465
H           0.72678391673304    0.80535873866495    0.86511155158011
H           0.55968091499291   -0.60640405115062   -0.10233451518570
H           2.86801707338740    1.75248217108288    1.38661201528244
H           5.31058865401880    1.70695294325359    1.01594581979706
H           4.89272082953948   -1.78118096698955   -1.41117625826990
H           2.44062972604899   -1.74441017897614   -1.04530950919399
H           8.44268699624524    1.46502193571250    0.68249435727554
H          10.56161552941753    2.59956606401870    1.31709438733735
H          12.70450250654894    1.86545735478742    0.40281630190472
H          12.83513986003759   -0.04186150220894   -1.18090174819552
