37
         -60.543782138477          0.000794522719
C          -0.90226897094778   -0.86350772860460    0.70161901280944
C           0.34453376230503   -1.26053799773304    0.47979338975992
S           1.49672009072833   -0.45327961210968   -0.59456890895211
C           0.50803442884807    0.96802694019385   -0.96720678765812
C          -0.75105394996984    1.14923868578421   -0.58827279810479
N          -1.51603305180191    0.26429831303506    0.16468012872331
C          -2.86276706947102    0.51172321583118    0.42026570414653
C          -3.76701295652427   -0.55517099068493    0.50516036755119
C          -5.09967766314177   -0.32763535044097    0.74837932692757
C          -5.58174201221029    0.97442899902815    0.93819314370290
C          -4.67371712143977    2.04211413428938    0.85414799166267
C          -3.34461764515073    1.81532641070838    0.59393717417717
N          -6.93182783653984    1.11589884760056    1.12820029475796
N          -7.33189875485739    2.25116368207158    1.57112124398844
C          -8.67358002095794    2.42838040999208    1.65991025737430
C          -9.71709261271496    1.65436448193626    1.17259658631335
C          -9.27947018247984    3.57330638415400    2.28784223291759
C          -8.77543898092626    4.68394148386380    2.95607513204500
C          -9.66874778651221    5.60871958394794    3.45481710008442
C         -11.04700778474138    5.44561664549460    3.30149623589015
C         -11.57143882605205    4.35109943877469    2.64447871380704
C         -10.67549588805455    3.41866644486508    2.14162160169497
N         -10.90025041648819    2.25058280911231    1.45691619530811
H         -11.80734034702421    1.89872055283202    1.19683270794174
H          -1.51312630337683   -1.40942656563449    1.40579244518296
H           0.75824597948611   -2.12188624508912    0.97249598738658
H           1.02982551632378    1.69884606534293   -1.55825609082832
H          -1.27200304631807    2.03996715794265   -0.90477774874637
H          -3.42012981903177   -1.56502513038862    0.34105760705560
H          -5.79737087048158   -1.14907954856957    0.80210639654121
H          -5.04709102559198    3.04460660735124    0.99817556090608
H          -2.66373249472293    2.65339049541055    0.55697718406896
H          -9.66070399053928    0.73174278218599    0.62803294245784
H          -7.71035981683089    4.80614056688626    3.07454418744721
H          -9.30195380070987    6.48008881582706    3.97708745090714
H         -11.71450509806165    6.19158895868047    3.70679048970792
H         -12.63762363402026    4.22294025611280    2.52680754104441
