36
         -65.258606855458          0.000346567796
C          -1.08888981887541   -0.09174798200303   -0.30972153062540
C          -0.23630641439958    0.97368303181497   -0.18577567022717
C           1.00040123571386    0.39735616208795    0.15515183978681
N           0.90492797614925   -0.90922684703889    0.23246382391199
N          -0.36670112761454   -1.21341254137061   -0.05059812929034
C          -0.78811419453735   -2.54114306771697   -0.04661379674407
C           0.13130109483487   -3.53368439439106    0.30309905867644
C          -0.24583351705715   -4.85511873800336    0.31456237610814
C          -1.55886756265666   -5.22246982701233   -0.01128641640680
C          -2.47429833878774   -4.21974690987172   -0.36758082821466
C          -2.09445794663916   -2.89841690715349   -0.38727771233873
N          -1.84072240191103   -6.56568430144470   -0.01241918963639
N          -3.07601276498144   -6.88561038771970   -0.08456466184548
C          -3.39306389933034   -8.18778747548575   -0.21581300513417
N          -2.58014058509002   -9.18264185740408   -0.58922577570227
C          -4.72444915994006   -8.69507236412059   -0.07181607172466
C          -6.01102838387468   -8.27214761561475    0.25386806377455
N          -7.01150558736187   -9.12098217152298    0.24682377346437
C          -6.77718880070519  -10.40962463865236   -0.08024590915219
N          -7.86130976142250  -11.21094045653146   -0.11562626704985
H          -7.72209510905881  -12.20047589046386   -0.20697561468868
H          -8.72126658921138  -10.85382880973390    0.25879214493389
N          -5.60389494268556  -10.95154441340713   -0.39974753826038
C          -4.60629358278929  -10.07407942717824   -0.37748067233069
N          -3.30423766413484  -10.28534938461817   -0.67758719378593
N          -2.71696828918255  -11.49250505885540   -0.99372569020653
H          -2.13020999560678   -0.11549086879298   -0.55401667426344
H          -0.46100048542816    2.01184822392552   -0.31815382861768
H           1.93653459779476    0.88453745962495    0.34240221458134
H           1.13501604554742   -3.23235633701226    0.55642410959429
H           0.45300200433113   -5.63131031923086    0.58329134675784
H          -3.47903151200873   -4.51191703348070   -0.63277727438563
H          -2.81463883108230   -2.14646676831608   -0.67008007822060
H          -6.24128942289358   -7.24887892863751    0.51731250951445
H          -3.31809991961617  -12.02442620066328   -1.61679137269028
H          -1.80351634548724  -11.31297695400668   -1.40017035956244
