32
         -51.136204380574          0.000723275454
C           1.05346579318391   -0.04036229413146    0.32686134368773
C           2.53136856159107   -0.02856134144691    0.08834175082406
C           3.26387980562111    1.14566112220137    0.24335622384826
C           4.61878449057692    1.17324124625070   -0.00515717779174
C           5.28557297190146    0.00936825549609   -0.40420064321506
C           4.55146230299824   -1.17448870442178   -0.55987667931493
C           3.19614492825561   -1.18310678996686   -0.31899129693975
N           6.63283765697228    0.12696652522656   -0.66474971215739
N           7.27682221201975   -0.96953365540737   -0.80786447866517
C           8.58823526582937   -0.85018895052309   -1.11773704863278
N           9.32070524553605   -1.95411570085307   -1.25024279717134
C           9.41330907668037    0.30635039181580   -1.35936946513758
C           9.22269411057750    1.68593915368591   -1.38322642124868
C          10.31234561534091    2.47819079218316   -1.66708226604011
C          11.57666611481530    1.93059104117084   -1.92374761063922
C          11.79266040444172    0.57141876700500   -1.90936655423448
C          10.69279990505983   -0.23061120516220   -1.62316498439642
N          10.55443424567824   -1.58520652666535   -1.54001829982449
N          11.56724730504222   -2.51473183177040   -1.68628373166466
H           0.78308862454886    0.65099940085211    1.12205295889993
H           0.70947342943920   -1.03770684030569    0.59084918369071
H           0.52886803092390    0.26895642549316   -0.57829700917087
H           2.75781628023727    2.04724770782897    0.55970192039856
H           5.18884090298375    2.08156763080921    0.11800621657587
H           5.07386025093243   -2.06380935305859   -0.87835519849108
H           2.63521051176808   -2.09846724910074   -0.44688803463194
H           8.24776876023822    2.10051903552689   -1.18470840592763
H          10.19847813051534    3.55188386542002   -1.69374043812744
H          12.39978000166571    2.59611058442425   -2.13809210367809
H          12.76262808030600    0.14035571317921   -2.10051965147523
H          11.78557105556582   -2.66655310735992   -2.67091589623970
H          11.24574992875345   -3.39002410839593   -1.28153369310681
