29
         -52.772356926437          0.000341773470
C          -1.12597944125099   -0.06204045467333   -0.26346321174502
C          -0.27323318426977    0.99465174203358   -0.09140812350245
C           0.95475913955538    0.40392469313207    0.26424007909241
N           0.85388792430701   -0.90232399935334    0.30400127655701
N          -0.41324061660025   -1.19480829197305   -0.01663462460090
C          -0.83486270113027   -2.51826258362789   -0.05798466848809
C           0.09420182165998   -3.52287732360460    0.22889326116164
C          -0.28319355912446   -4.84369122446606    0.19733595671687
C          -1.60366037092765   -5.19525220996310   -0.11421226368625
C          -2.53153779280874   -4.18242070275980   -0.40266525025700
C          -2.15197019485548   -2.86195951458749   -0.37706333156779
N          -1.89076910224818   -6.53922474802765   -0.13244803676063
N          -3.11275399293268   -6.85792656734553   -0.29770364156155
C          -3.36824289953043   -8.19274958050198   -0.39233473290793
C          -2.47322803415596   -9.28134335099004   -0.66865963966207
C          -3.26758525220269  -10.37988415326111   -0.71968851017197
N          -4.61301000857303   -8.62651287420554   -0.29137638309607
N          -4.55399998998619   -9.94881095902558   -0.48036272941457
C          -5.62524567060988  -10.73239442564091   -0.43345103297475
N          -6.52160207950643  -11.44279576173241   -0.39944699821576
H          -2.15990789520936   -0.07563471714223   -0.53763841995240
H          -0.48954805864830    2.03692661784676   -0.20193654518097
H           1.88709766902342    0.88292476245904    0.48736082499577
H           1.10293884713702   -3.22991700881639    0.47154666285393
H           0.42281893825301   -5.62870961758259    0.41807672085068
H          -3.54365014645171   -4.46850690193716   -0.64501552323732
H          -2.88003523375973   -2.09895696500769   -0.60313347851863
H          -1.41576515568046   -9.20637853742461   -0.80936493967794
H          -3.05942295947205  -11.41643534182089   -0.89589269704819
