35
         -61.586275126042          0.000902168092
C          -1.17936817841751   -0.03566829418814    0.05278521252002
N          -0.39214453004839    1.05995535489512    0.10796903122920
C           0.83635598374316    0.61883352535819    0.09594408135615
N           0.88558678827446   -0.73025648275866    0.04470304249208
H           1.71227305943476   -1.30258062447477    0.00608786597962
C          -0.41225635386371   -1.18549964286641    0.00992223419872
C          -0.78312208203865   -2.57739441922072   -0.05236990264686
C           0.14923909143998   -3.59738185211331    0.17834053988040
C          -0.22043982617077   -4.91966604728547    0.10721829309921
C          -1.53889351394843   -5.27140824235205   -0.20833425244494
C          -2.48119628945079   -4.25311802002495   -0.42900374813713
C          -2.10671977173863   -2.93575353627366   -0.34885930237911
N          -1.81519237538712   -6.61513695989101   -0.26213000795852
N          -2.98854512063207   -6.93735585999427   -0.65853461769508
C          -3.23617229420274   -8.26973922224729   -0.70030809848895
N          -4.42523651299098   -8.70535239938184   -1.09010795351610
C          -2.38918196313000   -9.39482336266963   -0.39246255080179
C          -1.10378787938051   -9.69309669096748    0.04319845468507
N          -0.73427081049106  -10.95212688885149    0.18971420128345
C          -1.60931230937275  -11.91415376594936   -0.08686441662599
N          -2.85212798790167  -11.78259138353765   -0.50473452205982
C          -3.22262250043808  -10.51366954685583   -0.65021060319825
N          -4.42069504769847  -10.03475255405807   -1.06073707100092
C          -5.57388270738890  -10.80196591113839   -1.42956080009581
H          -2.24577775028483    0.06202982407289    0.06278161705061
H           1.70993146484520    1.23913987652051    0.12356390669782
H           1.17143857033199   -3.35455798558852    0.43239890122491
H           0.49679650667625   -5.70627460359428    0.28404131216013
H          -3.49602035922352   -4.53731866914974   -0.66155638627789
H          -2.83265798336100   -2.15791754915854   -0.52759034163287
H          -0.37360232578219   -8.93011152200460    0.27382592520928
H          -1.25687858226892  -12.92826296105110    0.04773440221952
H          -5.30521479446131  -11.85451879611522   -1.36863523162123
H          -5.87953814486442  -10.54793139777163   -2.44511418322081
H          -6.40057346980860  -10.58630338931599   -0.75109503148638
