32
         -62.645424958788          0.000366345428
F           1.30290012584243   -0.17883592228684    0.73281181481430
C           2.63181350766668   -0.15799698753416    0.52334202259241
C           3.37717622267782    0.88397806966046    1.05307864800772
C           4.73646562948078    0.90849534704183    0.82704311470331
C           5.34863996096442   -0.11202905084815    0.08807340045490
C           4.56830055644246   -1.15517757074839   -0.43414990886002
C           3.20861980895217   -1.17712188467743   -0.22051308947676
N           6.70202735572756    0.01360396281267   -0.12179392984770
N           7.30303438758398   -1.00983156253674   -0.59438409501140
C           8.61012419494284   -0.83569487023807   -0.89688885452314
N           9.35169695747347   -1.88338995729905   -1.22983058598310
C           9.40219840161250    0.36486878032846   -0.99254723245376
C           9.29056039034502    1.74029350492972   -0.81809156761260
N          10.33634730214029    2.51526057876451   -1.03093820980898
C          11.47925146177061    1.95919718266085   -1.42174252084273
N          11.72399037897132    0.68149176234211   -1.63568554201609
C          10.67359647145371   -0.09679583341124   -1.41182969385453
N          10.57993362925355   -1.45313947359057   -1.53185722728455
C          11.56493917373775   -2.34184630558321   -1.90017261275238
C          12.88437678896642   -2.17668826363619   -2.25172953850995
N          13.42180631250786   -3.38776026833247   -2.52812970675747
C          12.47284638030849   -4.26532355838054   -2.35399868528519
N          11.31152451293769   -3.68345847094649   -1.96917649070827
H          10.41778569282679   -4.10024442829421   -1.76118263830447
H           2.88566305859384    1.65469224669830    1.62514282971453
H           5.35027888150913    1.70131097538137    1.22402455125603
H           5.05820878383977   -1.92518024281103   -1.00971518324945
H           2.58714058829961   -1.96467700218740   -0.61730910319584
H           8.37071200193638    2.21620718343956   -0.50795670950554
H          12.30568777191843    2.63668703056226   -1.58717158405236
H          13.44884112383452   -1.27044802557182   -2.31580226991692
H          12.58362218548425   -5.32112694570771   -2.49447940172872
