27
         -45.602226487853          0.000674893137
C           1.66800864929209   -0.73627759253223    0.82260677824153
O           2.22237838320458    0.00430445096769   -0.23764290781911
C           2.77237639625060   -0.66160720886895   -1.28530636436208
C           3.32167470053173    0.13974035220318   -2.29270394760095
C           3.90278734941279   -0.43024497950798   -3.39843662112406
C           3.96010724319459   -1.82417274661180   -3.53079375099872
C           3.40649243341318   -2.62095181824065   -2.52118180953704
C           2.81876392818360   -2.05019004282295   -1.41384581593880
N           4.55331237875557   -2.31094605646217   -4.67442663361177
N           4.67276083271411   -3.58079799436809   -4.74963299940059
C           5.25208134103390   -4.05003533407009   -5.88732702829786
C           5.79939878956346   -3.36694755218651   -7.00736813092446
C           6.25566421106652   -4.36004800808855   -7.83149726215458
N           5.36959082993765   -5.37211603784805   -6.05766627214410
N           5.96942185773435   -5.53069232201223   -7.21438820520943
N           6.29660341076067   -6.79004454995633   -7.68060476232913
H           1.30509739866568    0.00005653712247    1.53803520353935
H           2.41867648663028   -1.36938704452996    1.30533212187790
H           0.83102602913901   -1.35570370337510    0.48613029034799
H           3.27321585309124    1.21076570984634   -2.17327319167685
H           4.32902002811587    0.18161423783661   -4.17802379764475
H           3.44898996181973   -3.69348551524750   -2.63507267712024
H           2.39748654553070   -2.69016682659941   -0.65363608361419
H           5.83978737286583   -2.30786549941579   -7.14679024814737
H           6.74402075716622   -4.34042744653836   -8.78418269940024
H           6.15551171013975   -7.44593683312046   -6.91615439552087
H           5.70334512178515   -7.05813617557237   -8.46515878943215
