28
         -48.614434848224          0.000634168649
H           1.11485133612169    0.12415931340404    0.05838699380892
C           2.18859392442789    0.10551153045514   -0.05782891843438
C           2.95676129744917    1.14740993856927    0.44128855233693
C           4.32756787809434    1.13467536716373    0.28538344595363
C           4.94804930405253    0.05906818016945   -0.35890043719860
C           4.16609992540518   -0.98987902264608   -0.86055841841846
C           2.79619941790081   -0.95807764477097   -0.71093689094535
N           6.31582949239567    0.13748128865086   -0.51756801404844
N           6.91517909852044   -0.94676846208687   -0.80854808892594
C           8.25168308292343   -0.83945364693511   -1.04504001544661
C           9.08027683009051    0.31674552741963   -1.18090233218629
C          10.32139631900404   -0.17896098612651   -1.44400155708098
N           8.97056184373339   -1.94559159711622   -1.22129411617929
N          10.20967959989080   -1.54126637677965   -1.45538767347137
C          11.21928407093344   -2.45439356079940   -1.66954902107742
C          11.18745581493867   -3.82129488099323   -1.68175747147525
C          12.51801373389472   -4.22310282710360   -1.94792007593633
C          13.24574839144339   -3.08168585066622   -2.07531689697539
O          12.46274704772346   -1.99494598660832   -1.90717516214057
H           2.47953082768017    1.97334044411753    0.94837562036415
H           4.94282305145219    1.93443252913709    0.66825179939491
H           4.66328760677128   -1.80185606422151   -1.36945891544565
H           2.19256555064936   -1.76397586898248   -1.10311877460808
H           8.76609835948525    1.33544817004021   -1.09638195720774
H          11.26405002954955    0.29764857300109   -1.62179394759260
H          10.32581312646701   -4.43275984058107   -1.52046929451151
H          12.87828797303860   -5.22738555745675   -2.03155961528996
H          14.28298506596307   -2.90524268825401   -2.27638881726251
