29
         -56.498425784114          0.000274248637
C           1.33981093866914    0.20792871722400   -0.66044888824013
O           2.34093751537491    0.07849266635139    0.32361192767068
C           2.94464549196347    1.18584209821525    0.80095484061618
C           2.66831931850679    2.49104027390942    0.38671400020661
C           3.35033295150479    3.54870509975908    0.94639377464642
C           4.31727985500510    3.33671969543458    1.93620171207326
C           4.59326134037147    2.01923158609492    2.34844527378543
C           3.92008801230984    0.96772733119834    1.78758961812277
N           4.94381121307382    4.45231950404721    2.42437554603122
N           5.74732267576586    4.27970424299770    3.39961521296775
C           6.47368995480269    5.34898192229114    3.79498152016995
N           7.04578607038873    5.37163722442054    4.99042362042838
C           6.87439581236861    6.51760493924584    3.04898195117104
C           6.69322811793219    7.10575681772181    1.80271183995512
N           7.27540197272633    8.25732914028444    1.52623214673757
C           8.05146334699876    8.82306671374740    2.44598928685569
N           8.33452517190660    8.37320064229485    3.65179006664863
C           7.73093879298802    7.22736500088530    3.93518610474168
N           7.76751218875470    6.47281657357097    5.04961157157751
F           8.42861346077241    6.75546790477728    6.20208393232872
H           1.00626492202412   -0.80599940944163   -0.87432405770228
H           1.73370531130997    0.66023962978680   -1.57538908353793
H           0.49419307886614    0.79787124429201   -0.29474810699760
H           1.92431952263644    2.68432431812793   -0.36985994407458
H           3.14304812730072    4.56101297442947    0.63577243844310
H           5.34187334766547    1.86565052174242    3.11021575913076
H           4.11713325444804   -0.04975244590489    2.08709097915868
H           6.07997151647323    6.65927432547470    1.03209025583677
H           8.51097671709047    9.76184074702119    2.16926670124956
