29
         -51.994414471261          0.000932049576
N           1.16906547085999    0.15357066372409    0.12818280238783
C           2.52804191192557    0.09479508643400    0.00035220577982
C           3.35185541658276    0.95213858536985    0.74190768165628
C           4.71824726634740    0.85512126367343    0.65387908115881
C           5.31442979386511   -0.10027145056321   -0.18231014793469
C           4.48638564267961   -0.95860642671963   -0.92743291453025
C           3.12219769510356   -0.86280329550685   -0.83508193804349
N           6.68409119523369   -0.10779203013102   -0.21487150699921
N           7.23626181773450   -0.99604956722870   -0.93729304628842
C           8.57261768776194   -0.97452372054039   -1.12790853578088
N           9.32702163493912    0.11073708664748   -1.24043887154958
C           9.34786581195361   -2.14329397877862   -1.44173627752661
C           9.22151268506597   -3.52400617884373   -1.51337929000748
N          10.24861016268943   -4.27030693990441   -1.85960838589757
C          11.42279853843084   -3.66966452997478   -2.13007192326772
N          12.42283062318819   -4.48572733252516   -2.52842218471336
H          13.35005097050069   -4.10552023150801   -2.58647565704509
H          12.29010734134487   -5.47497011375079   -2.42188035995158
N          11.68953711671934   -2.36468078573898   -2.07566331607667
C          10.63864174905261   -1.63025457550268   -1.73596716325512
N          10.55964284479090   -0.28988571429151   -1.60746510438493
H          11.27391515891706    0.39415102782104   -1.79664052291404
H           0.76568155807996    0.96627053880693    0.56198429129464
H           0.60327816717964   -0.32157156001441   -0.55344321167892
H           2.89560118712735    1.69240906528504    1.38359323317380
H           5.36057937086422    1.51277517290273    1.21840679584743
H           4.95155102805839   -1.69153597709828   -1.56875125757781
H           2.48682960193493   -1.52505396235929   -1.40688098462206
H           8.29569055106890   -4.04149011968375   -1.30001349125293
