28
         -48.463191361410          0.000217645703
H           1.20325667004074   -0.08854581664899    0.89360863902416
C           2.26411185783098   -0.11220051037817    0.69241295677072
C           3.11508126510083    0.76134938726223    1.35422616554535
C           4.46839693476134    0.74744567439436    1.08921599814247
C           4.99317145763629   -0.16782678527553    0.17008204297836
C           4.12811146798536   -1.04809975233056   -0.49243084185062
C           2.77447818106333   -1.01079404525230   -0.23309978758168
N           6.33998304388471   -0.08164886500968   -0.10109837447409
N           6.90436399653635   -1.12497805212355   -0.56774864801573
C           8.20781470909148   -1.00032228690853   -0.93041009706574
C           8.96238844878914   -2.08326077121292   -1.34893816613426
C           9.06999257282429    0.15831388465668   -1.00474633967069
C           8.89564437387044    1.51221082506126   -0.73545485719101
C           9.96411978959151    2.36215093036679   -0.93363934158251
C          11.19682915362622    1.89424798306057   -1.39300910970832
C          11.39982965822095    0.55800600006123   -1.67152993757076
C          10.32536413691982   -0.29517600963669   -1.47245334511154
N          10.19711643538321   -1.64182084489726   -1.65468803994936
F          11.20247208581458   -2.45977170927630   -2.10281221813726
H           2.71514970438279    1.46029494789760    2.07441864728552
H           5.14434376659941    1.41835700765844    1.59730254261026
H           4.54538418353291   -1.73313411483718   -1.21542724672661
H           2.10840188916984   -1.68486019022166   -0.75259318852098
H           8.69096437784918   -3.11627790271920   -1.43253874091595
H           7.94218540013689    1.86887507445278   -0.38121668743394
H           9.84989176344245    3.41632040835548   -0.73032118128001
H          12.00725420961640    2.59294660582638   -1.53512769301076
H          12.34822846629910    0.18857892767216   -2.02990315042211
