28
         -49.077232414122          0.000964011928
H           1.21278190205442   -0.06126437148179    0.54437594802152
C           2.28610280721669   -0.13743110091260    0.45258277684298
C           3.10502176788123    0.46823389341517    1.39511054970404
C           4.47670238918033    0.38465627170596    1.27615038715760
C           5.04229509772014   -0.32980922554524    0.21368755242466
C           4.20926593516206   -0.94112327749240   -0.73350701530411
C           2.84074923945523   -0.83723168550641   -0.61088259320395
N           6.41861218535568   -0.32892012869855    0.13557764852517
N           6.95017440580702   -1.19936402590219   -0.61381559256112
C           8.26929665285636   -1.11261086327450   -0.89109781242053
N           8.97255703713438   -2.18851962307270   -1.18233969853183
C           9.06085353616350    0.08347639769855   -1.10414235202252
C           8.83465524446857    1.44924643502839   -0.98905834136818
C           9.87683996382790    2.29547187593585   -1.30572040152122
C          11.11249008298564    1.80546275739054   -1.73878724677457
C          11.35297860170250    0.45271150455828   -1.87230467899619
C          10.30521163623489   -0.39535227231321   -1.54764501817172
N          10.20196531273178   -1.77665174571148   -1.56387665894408
C          11.17068153651082   -2.61315930405578   -1.89780808566721
N          12.03869070845662   -3.29695795910814   -2.20011478208882
H           2.66686865837942    1.01002740212776    2.22006174916775
H           5.13359129402495    0.84532312856267    1.99786936240951
H           4.66531383084734   -1.47593795980382   -1.55311639110561
H           2.19711830205929   -1.30184788627908   -1.34340749624018
H           7.87802923878573    1.81959660313238   -0.65478610495765
H           9.74038403444080    3.36293379640578   -1.21992689016465
H          11.89765712958600    2.50583227157931   -1.97988157248065
H          12.30067146897287    0.06891909161161   -2.21635724173729
