21
         -39.123328106800          0.000605307119
H           1.12391172877775   -0.00150898300513    0.14565359556119
C           2.20184713332389   -0.00098447644381    0.07892424962530
C           2.88897432897640    1.20132490111702   -0.00634727027041
C           4.26525968933884    1.20721544886859   -0.10328189607781
C           4.97099631577137   -0.00077246173759   -0.09603030926755
C           4.27117300279344   -1.21159674570705   -0.00953441916479
C           2.89528783429177   -1.20372254024319    0.07335205368785
N           6.34064990625241    0.08649627023025   -0.23462387259873
N           7.00646999609460   -0.96032947178680    0.04472162262319
C           8.35087136911924   -0.87793163148440   -0.16983887202263
C           9.13205908245625    0.12440973044555   -0.81145184451974
C          10.41844904423957   -0.34619965495673   -0.76159804579517
N           9.13275081640863   -1.88442696222463    0.23397941685254
N          10.32355275191546   -1.52932489787590   -0.12684396049091
F          11.38055198359893   -2.34084103988170    0.14185586214252
H           2.34479205031557    2.13437515500802   -0.00218206160624
H           4.81928320321931    2.13087386786780   -0.16868882083592
H           4.83394653771924   -2.13263388002213   -0.02100612348821
H           2.35397437674774   -2.13666384806287    0.13461367458024
H           8.77101421659322    1.03516230710989   -1.24020266609857
H          11.35426463204635    0.04079891278490   -1.10743031283606
