41
         -74.217266463603          0.000412739560
C          -0.64878695522652   -0.18859377291507   -0.30857722085385
C          -0.01148275763624    0.97926489350510    0.14712268585247
C           0.77863065043269    0.75569308679256    1.23052419146726
S           0.75672237327170   -0.88682022427859    1.71904255181745
C          -0.34431968445039   -1.30345110504878    0.43188340460196
C          -0.81011264922748   -2.65943896987025    0.26796199197154
C          -0.51911986995519   -3.63497306766370    1.23041143399659
C          -0.97626002166451   -4.92313521472432    1.09494811677843
C          -1.73528076015445   -5.29131642860140   -0.02411396303278
C          -2.01939742016505   -4.32139886187771   -0.99955666705380
C          -1.56879917751113   -3.03361359586458   -0.85177870233269
N          -2.17024458466105   -6.59286593858614   -0.06086281554904
N          -2.78472853614465   -6.95923761186401   -1.11362740436952
C          -3.15427214481407   -8.24672514297511   -1.25028287062133
N          -2.52959339693495   -9.29939446430479   -0.73299626015134
C          -4.20168264242790   -8.68301441779075   -2.13299052559887
C          -5.20262332808339   -8.18027921530104   -2.95637791454714
N          -5.99433021181857   -8.99625697202725   -3.61670582280057
C          -5.82918324110882  -10.32590313214882   -3.47569433892793
N          -6.67057248039519  -11.10648122887039   -4.17382160645992
H          -6.58550693416090  -12.10333051676097   -4.10438533213622
H          -7.36386828829847  -10.67558940535484   -4.75612304096988
N          -4.91958691409301  -10.93673968544987   -2.71314854092467
C          -4.13428986685094  -10.09337466719052   -2.06485653663065
N          -3.10810058290984  -10.40517040668423   -1.22866348034049
C          -2.66985730009807  -11.67095580384053   -0.92590158735764
C          -1.65032983041610  -12.01673001369586   -0.08526384586543
C          -1.48672722878159  -13.41453339388102   -0.00902270630884
C          -2.37432618458085  -14.09213261695120   -0.78154797572211
S          -3.44679839338553  -13.04534838293674   -1.63600132218666
H          -1.31778134367385   -0.19571953156303   -1.14966349791560
H          -0.13582081508560    1.94448068463936   -0.31061363918588
H           1.37575051281545    1.45848057257704    1.77695942994643
H           0.06715182041413   -3.35935411845231    2.09539524102331
H          -0.75725833088150   -5.67531588699165    1.83642558561839
H          -2.60610963051659   -4.61173899365039   -1.85812814293052
H          -1.79559389924256   -2.30171956273982   -1.61169369526728
H          -5.37196958459520   -7.12131509620407   -3.09675293709339
H          -1.06129946012568  -11.29040708388555    0.44207125404688
H          -0.73888478143217  -13.89083534579823    0.59885917894175
H          -2.47054612542623  -15.15212936077245   -0.90483267292787
