28
         -52.433085928644          0.000709023241
C          -1.13534360863719   -0.02858342090749    0.01649344286172
N          -0.33468122720640    1.05855220335919    0.04391581313710
C           0.88818852901088    0.60267590713036    0.02434148440019
N           0.92104722215689   -0.74758432495628   -0.00607147075391
H           1.74056241048996   -1.33047220968270   -0.04391514457086
C          -0.38227551824414   -1.18825969166576   -0.01639923391939
C          -0.77129113988092   -2.57658280798996   -0.04838954441510
C           0.16134223277418   -3.60676285744918    0.13124434624739
C          -0.22514104036169   -4.92537616838366    0.08000815627935
C          -1.56584650903056   -5.26327675040570   -0.14054262071966
C          -2.50733748635476   -4.23524119693274   -0.31078360331062
C          -2.11324377986596   -2.92170805437491   -0.26749194518138
N          -1.85663932455547   -6.60418723862667   -0.21819648776075
N          -3.09405489610883   -6.91378559067947   -0.25059307997285
C          -3.35993283348676   -8.24334834553993   -0.38343322754921
C          -2.48779437879147   -9.35691319742170   -0.55026162001678
C          -3.31745627210442  -10.44347609953789   -0.64463046342768
N          -4.63353899989285   -8.65135809556832   -0.38081790394581
N          -4.55872798989354   -9.93453767913782   -0.53351385799069
F          -5.69694688850461  -10.67735461847805   -0.57488008022887
H          -2.20037804489684    0.08340827732445    0.03447734706811
H           1.76915000780291    1.21287166918334    0.03236929036013
H           1.19996873958294   -3.37578094296705    0.32211233384877
H           0.49226181815936   -5.71977122997441    0.21917318652952
H          -3.53649769908281   -4.50932257554539   -0.48622408506775
H          -2.83976278867938   -2.13722912652954   -0.41159572546325
H          -1.41970295300054   -9.32708654817134   -0.59228439223813
H          -3.14139758139808  -11.49085928607151   -0.77600091419963
