32
         -62.919826060333          0.000662760198
C          -1.13574336560148    0.00144814966628   -0.25491415245933
C          -0.24856871832080    1.06581000428447   -0.00227084753988
C           0.91430722421906    0.49055186494170    0.41840989258931
O           0.80574609077850   -0.84182908882680    0.44087418864413
C          -0.44705722842371   -1.15784604547243    0.03081387165929
C          -0.83442922994481   -2.54528781013325   -0.04303851730369
C           0.08965671954953   -3.55099643558954    0.27214660918135
C          -0.26573135013852   -4.87556821795285    0.19946350901554
C          -1.56326594126124   -5.24032525108936   -0.19030487714279
C          -2.49326307951471   -4.23250508966466   -0.50357069004207
C          -2.13225257874123   -2.91163857421960   -0.43075975724044
N          -1.82894963276313   -6.58312093646369   -0.23735975344227
N          -3.01628310824501   -6.91692965246296   -0.58407905584799
C          -3.24870062022030   -8.25207472697018   -0.61840144492311
N          -4.44423765248437   -8.70206138137042   -0.96889518082904
C          -2.38416070771369   -9.36874483039495   -0.32055168443062
C          -1.08030025148583   -9.64204363605707    0.08250435359591
N          -0.68750778246166  -10.89096163610312    0.24043629371724
C          -1.55257766862969  -11.87403900086046    0.00984726207043
N          -2.80871788828075  -11.76852010393746   -0.37502741781387
C          -3.19997289089054  -10.51265518941575   -0.53329690948947
N          -4.39430066593538  -10.01336836422706   -0.91349327694752
F          -5.50845739401986  -10.72175132874349   -1.23025217984239
H          -2.14431961169994    0.08436164680994   -0.60320559433814
H          -0.44549854697264    2.11176705986811   -0.11698666342765
H           1.85301915646283    0.91266967197608    0.71892055011899
H           1.08716313665416   -3.26842354849220    0.57187128479186
H           0.44041772801633   -5.65551918627335    0.43890854960406
H          -3.48715048335600   -4.53093991277207   -0.79996520875348
H          -2.85100233340531   -2.14417751065247   -0.67171153803272
H          -0.35763070178717   -8.86224409873572    0.27652072218602
H          -1.18224062338209  -12.87946684066592    0.15394766267190
