34
         -58.213501536796          0.000967609836
H           1.17206447252718   -0.23185188671189    0.66773660552447
C           2.23974265340533   -0.21865541867015    0.50491806492268
C           3.01200081902688    0.79319915831137    1.05813916642074
C           4.37387597849125    0.82246851961361    0.84229439783896
C           4.98402573637674   -0.17982441201403    0.07905375695672
C           4.19773298831376   -1.19942297899288   -0.47445534567349
C           2.83605686212809   -1.21001242534903   -0.26166226560945
N           6.33831778711072   -0.05383376590122   -0.13933419386087
N           6.94281658424677   -1.09380708174265   -0.56658406372790
C           8.24856318152112   -0.93913232752219   -0.88971226372584
N           8.96782627347587   -2.01069252887607   -1.18925898746978
C           9.05616267108867    0.25004248136236   -1.03356158791775
C           8.84431656310516    1.61544202067455   -0.87340520766440
C           9.90431654015378    2.46049475858324   -1.12048233107141
C          11.15034911735637    1.97036134098044   -1.52429258282929
C          11.38137018397619    0.62193256280766   -1.69578610605210
C          10.31582015377481   -0.23350811556185   -1.44371031443884
N          10.19519907870056   -1.60592365643375   -1.51330878960469
C          11.14434709538394   -2.54211206737984   -1.85375258491917
C          11.03131098864076   -3.90444121113255   -1.92944837894917
C          12.30908392096769   -4.36491334583277   -2.32396252232822
C          13.09127964815196   -3.26106729885717   -2.45653066284003
O          12.38952485554837   -2.14190002204925   -2.17149764226216
H           2.54377698219947    1.56270069524106    1.65438826801395
H           4.99152056767648    1.59944645377669    1.26680050482561
H           4.68470582950212   -1.95485622005808   -1.07205594083230
H           2.22917959518162   -1.99304976778494   -0.69375318200013
H           7.87870299143910    1.98103564105715   -0.56384747056240
H           9.77728065039531    3.52639093859014   -1.00262851710469
H          11.95242024409033    2.66941728924458   -1.70921367078116
H          12.34129430422553    0.24906839504858   -2.01257475721767
H          10.15038076107314   -4.47463226422354   -1.72698771005275
H          12.60083210998007   -5.38178417955467   -2.48574949573031
H          14.11749181076414   -3.13070928064214   -2.73442418927606
