30
         -55.957893817252          0.000692716017
F           1.16606392932227    0.10812487473593   -0.03691193132783
C           2.51000025038323    0.04675979306664   -0.11739708185165
C           3.26333414570893    1.04588993157522    0.47806490387351
C           4.63784783707726    0.98102984971088    0.39040215506823
C           5.25508202928634   -0.08024633058779   -0.28199228530460
C           4.46527171555862   -1.07460935575974   -0.87872435909426
C           3.09192432263614   -1.01267484220278   -0.79723107481779
N           6.63291853340464   -0.04366839368206   -0.33587152138475
N           7.20329678330105   -1.08058369699882   -0.80081845157894
C           8.54086315927861   -1.06137199869481   -0.98732756406351
N           9.30345181603665    0.01363006862313   -1.16855852210414
C           9.33184472293589   -2.24590393800229   -1.15329775064328
C           9.22171542259990   -3.63201228038853   -1.10454455610284
N          10.27032339637003   -4.38861366108588   -1.33269279747413
C          11.45364127025508   -3.80116811569898   -1.60349052539339
N          12.47572636523743   -4.63914146181870   -1.86816351456858
H          13.40202421713169   -4.26145416134259   -1.94197103549821
H          12.33499797997147   -5.61941307286000   -1.70621055042735
N          11.70359263349365   -2.49344210851421   -1.65918089442607
C          10.62836482465860   -1.74769185545759   -1.43545271137308
N          10.54185792754420   -0.39728441968548   -1.44080458271334
C          11.59311951952219    0.53004894367415   -1.73851861365811
H           2.76707970761803    1.85288195407075    0.99381256518888
H           5.26134144946094    1.73812932787753    0.83851872491743
H           4.95717631016833   -1.88065482638734   -1.40116227499947
H           2.46436286623817   -1.76567017557290   -1.24837680041163
H           8.29250474537596   -4.14025472625059   -0.88546639360513
H          12.49137734241074   -0.04629670548733   -1.94970208977309
H          11.76112784349380    1.19067100094808   -0.88668256626765
H          11.32235693351846    1.13706038219489   -2.60367790018514
