33
         -50.873827413030          0.000817917024
C           1.22228988894443   -0.15640263233385    0.59457278344734
C           2.70374410465939   -0.16278520789492    0.37267876936641
C           3.49995516448434    0.85847983199152    0.88326316878512
C           4.85883467890303    0.87941975163884    0.65739024206262
C           5.46802563314752   -0.14389940026437   -0.07625482813316
C           4.66918158741519   -1.17246860891783   -0.59088780648466
C           3.30978897927285   -1.17206835298221   -0.36927779531309
N           6.82088273773810   -0.02931518645218   -0.30704727880135
N           7.42668462015701   -1.09493937677672   -0.67478081750354
C           8.74044457402685   -0.97717582792765   -0.98097740690343
C           9.51043156703094   -2.07060177239460   -1.34961536100456
C           9.62022473928189    0.16624062118325   -1.02891731248931
C           9.45363026694758    1.52643087681801   -0.78960521244186
C          10.54693506148932    2.35425556082266   -0.93733001545789
C          11.79541111490375    1.85543850636606   -1.31518267555883
C          11.98695476099783    0.51152350568840   -1.56121367604844
C          10.88822681208707   -0.32287588738187   -1.41319740235152
N          10.77820198539725   -1.68079916462732   -1.60266654097569
N          11.85135125656896   -2.50061589950816   -1.94570197144984
H           0.98011341257501    0.23408384330917    1.58080586378334
H           0.81002466841143   -1.15830358757350    0.49948126653503
H           0.73673013691679    0.48097045513832   -0.14584010831586
H           3.04033062969200    1.64827157592144    1.46096279911582
H           5.47650328739896    1.66928008619472    1.05653288237709
H           5.14307920882755   -1.95130379158940   -1.16954980235259
H           2.70097117943899   -1.96860401266403   -0.77562777668878
H           9.21120866385763   -3.09919238091272   -1.42294670087599
H           8.48768577439905    1.90530151201276   -0.49738420328296
H          10.44189308576197    3.41391486416772   -0.75669424218461
H          12.62704272597302    2.53689895014717   -1.41617591682690
H          12.95069099522534    0.11817334619147   -1.84582861364007
H          12.14169720469581   -2.33043735879411   -2.90775177260878
H          11.58076949337390   -3.47399483859686   -1.84356253777906
