36
         -68.965182979761          0.000817471930
C          -0.51438683252215    1.11855557739461    0.54875738465590
C           0.78459299031854    1.00447642248294    0.29806407662793
S           1.54992212162277   -0.32785299257046   -0.57134201319236
C           0.09017055163251   -1.26743963863539   -0.89057487672487
C          -1.13887192011226   -0.93785353691142   -0.51117018780093
N          -1.50503497930181    0.20860055642018    0.18930677370609
C          -2.83172153649272    0.44086166124211    0.51818560974950
C          -3.69593997995121   -0.62566876904894    0.81191021004053
C          -5.01088436369058   -0.39578661112541    1.12729990073135
C          -5.52267218066068    0.91069833489958    1.16819495724713
C          -4.65596538702261    1.97928112850347    0.87167551840366
C          -3.34278688499335    1.74874040140321    0.55591069173920
N          -6.85273985200461    1.04015716709223    1.44027905685364
N          -7.28849716612882    2.21849696902453    1.65912589972046
C          -8.61183068642152    2.44110467179141    1.73468549364084
N          -9.55577787170503    1.77784263214202    1.06896635247101
C          -9.19836941294415    3.56383508304171    2.41222206867457
C          -8.84122375950811    4.61769879175144    3.24675394719452
N          -9.74352628270470    5.47720783280034    3.66193555123554
C         -11.02485361401812    5.31563882796930    3.27551858606942
N         -11.89730116611677    6.23433547276062    3.72169619447403
H         -12.86884934070057    6.13703323054980    3.49309772676733
H         -11.57234976755348    6.95588709373937    4.33702290052837
N         -11.50771528586562    4.34730637438838    2.49488148920572
C         -10.57963481598074    3.50013883793403    2.08436210945136
N         -10.69280899855313    2.41005672069408    1.30366487470037
F         -11.80976390921891    2.02745256725495    0.61182902777090
H          -0.86516519729267    1.95953144710821    1.12716832335699
H           1.48713406430804    1.74368199625563    0.63886911001780
H           0.27987170043743   -2.16126331859892   -1.45728663465957
H          -1.96437591985352   -1.57004013636353   -0.79989088285961
H          -3.31783757111320   -1.63682565579614    0.82549625503695
H          -5.67354004805253   -1.21222810749804    1.36686401824901
H          -5.05715009050558    2.98141109692926    0.87684114881820
H          -2.70807988425046    2.58173074643250    0.29163182104075
H          -7.82558672308006    4.77795712454100    3.58131751705729
