39
         -63.947949258002          0.000963393815
C          -1.03847068644017   -1.05507319638066    0.21726851851827
C           0.21589025922870   -1.45815328086162    0.05884127356954
S           1.60079033058789   -0.40275045703813   -0.26503342617686
C           0.72432246545736    1.13642218307033   -0.26716732154541
C          -0.57877365443077    1.28045761235277   -0.06178906239954
N          -1.49264556735569    0.25917348639960    0.17616853196553
C          -2.84470036005587    0.54534999972277    0.35508989965066
C          -3.82874237613543   -0.32013217880245   -0.13593223374196
C          -5.16165777560281   -0.03719649392498    0.04154743475884
C          -5.56661791669365    1.11398249970774    0.72914292839895
C          -4.57738984017353    1.98226266839230    1.21679254136110
C          -3.24591953923658    1.70487993287757    1.03016453287002
N          -6.91776040320486    1.32669321853529    0.83620394051859
N          -7.28184059393106    2.27619516291617    1.62270895379934
C          -8.60950470617640    2.52345355516792    1.69811790463993
C          -9.13286342354158    3.49920910981350    2.53426266068104
C          -9.73762650417049    1.93793113987257    1.01283093002092
C          -9.87472920271009    0.94107330134974    0.05269121224186
C         -11.14330980578139    0.63132191433673   -0.39125164851200
C         -12.27105888740324    1.29026941551255    0.10277249020403
C         -12.16281932233799    2.28423323749042    1.05334098899024
C         -10.88729606556253    2.59747821464642    1.50071873354197
N         -10.47844508321030    3.53852333761372    2.41617377744412
N         -11.35641979624865    4.35146416843772    3.13035882409823
H          -1.80140436330708   -1.78419841897350    0.44553530989458
H           0.48714171220728   -2.49585007207506    0.12942548324160
H           1.35864676605396    1.97932107174433   -0.47342136756410
H          -1.01584674903009    2.26567689709012   -0.12358764542438
H          -3.54196326900810   -1.20245688778377   -0.68873074201840
H          -5.91958766580992   -0.69987166379774   -0.34631797477364
H          -4.89008432285007    2.86945567059472    1.74580109552178
H          -2.50177761854873    2.37327886792609    1.43895233332221
H          -8.60827844804290    4.14502544389996    3.21282444869197
H          -9.00011063108825    0.43470899785859   -0.32209571143467
H         -11.27429794124556   -0.13882334101826   -1.13714003317579
H         -13.24687508226055    1.01812261852935   -0.27114371572804
H         -13.03045120391545    2.79402255975001    1.44306668715054
H         -11.77655003506222    5.05188970853708    2.51977428201296
H         -10.85346269295112    4.81759999650549    3.87985516539085
