31
         -51.785981193978          0.000525381171
C           1.09013114298472    0.12820341442082    0.18368560171992
C           2.57879187982575    0.08503844702233    0.03515479768243
C           3.39436677033771    1.01077732219341    0.67801416601354
C           4.76423406539149    0.97479798631638    0.52344839771359
C           5.35611509912516   -0.01041742060013   -0.27303526901890
C           4.53748429425616   -0.94586609601748   -0.92255675958897
C           3.17200736970363   -0.88884473457545   -0.76860338953715
N           6.72680958252839    0.04060253995002   -0.40298990307931
N           7.28303447853071   -0.98067929467056   -0.92455851439796
C           8.62605327599130   -0.88581592129698   -1.12503742854083
C           9.49609626223235    0.24551284308618   -1.05337456532091
C          10.72120090077121   -0.24010554358296   -1.39775866842722
N           9.30680141057982   -1.96875937580823   -1.49205764584808
N          10.56268527113061   -1.57448041801411   -1.64748209120315
C          11.54113398174225   -2.47292930224862   -2.01251373885908
C          11.46133061818406   -3.81653902479207   -2.25330353548579
C          12.77827095076759   -4.21553907252961   -2.58375408103901
C          13.54659418448965   -3.09574647083854   -2.51893418515901
O          12.80151828874495   -2.02490477834324   -2.17056304193945
H           0.79085844897562    0.86998580138162    0.91971348476980
H           0.71007019037440   -0.84518185188396    0.49071296369811
H           0.62445192284111    0.37876279125028   -0.76948203478140
H           2.94604239696803    1.76997560104709    1.30338831444642
H           5.40089754724904    1.68972693675548    1.02174620421470
H           5.00668577613810   -1.69366796178198   -1.54390625307892
H           2.54289539727355   -1.60783331822686   -1.27504496665969
H           9.21626782396020    1.24456619020450   -0.79396462974309
H          11.68137062375836    0.22621688682026   -1.48723195382673
H          10.57764083895183   -4.41497281489131   -2.19587298563733
H          13.10324590563570   -5.20401578810297   -2.83429174894219
H          14.59046330055752   -2.92523757224370   -2.68836654014457
