31
         -56.248053005052          0.000656304584
C           1.12834654870778    0.31152008136991    0.05204163748442
C           2.61761677308363    0.18993995550707    0.01123434553516
C           3.41686920644108    0.77354559919837    0.99004814325814
C           4.78946149432876    0.65220887944152    0.94655116647162
C           5.39821017251012   -0.06493723625388   -0.08911012543979
C           4.59672827590225   -0.65210609195408   -1.08047628970332
C           3.22947732973281   -0.52254050430486   -1.02217510163059
N           6.77319880118669   -0.11673426932895   -0.06024657808229
N           7.34305787628142   -0.82558615093934   -0.93133892610415
C           8.67577120323724   -0.83063046155195   -1.10700708667686
N           9.42506221602780    0.25071730455334   -1.21139358382946
C           9.43088454057379   -2.00367110882781   -1.46898447922239
C           9.28001788621419   -3.38142964607371   -1.56910190273486
N          10.28606340615818   -4.13399740243142   -1.95561532933776
C          11.46399006796893   -3.54847140080487   -2.24019796046998
N          12.45575335835768   -4.36060124197136   -2.63411815187952
H          13.35264563221078   -3.96722489388887   -2.85198439987129
H          12.28655475150719   -5.34756317918403   -2.68940999393504
N          11.74166940230943   -2.24120310602903   -2.17091389697502
C          10.71554473658760   -1.50956620376008   -1.78753511201508
N          10.66153947042351   -0.14587015212770   -1.63780950808794
C          11.63358344506053    0.71544017024063   -1.89601317874895
N          12.48466661830968    1.44979575387945   -2.11209358520266
H           0.80762705612609    0.94359672726284    0.87569327802687
H           0.67499270124868   -0.67236093774351    0.17079158292417
H           0.75695163600759    0.73378810627940   -0.88071025120702
H           2.95356777556814    1.32955576053336    1.79217873926464
H           5.41721698550502    1.10310803955729    1.69900224408912
H           5.07456008784352   -1.19976805641599   -1.87903379382304
H           2.61272768568401   -0.97535180112260   -1.78568812329178
H           8.35096285889655   -3.88857253310892   -1.34679377878550
