41
         -75.005436656725          0.000760711281
C          -0.59189097142184    1.25100555849297    0.18445158309365
C           0.72527637253313    1.10917092691738    0.09087309344256
S           1.61186975416798   -0.40536353889550    0.28631379088986
C           0.21667431912712   -1.46596662319888    0.49605686683597
C          -1.04886234460826   -1.06934992720472    0.56493696865239
N          -1.50871870669258    0.24060777985239    0.45970461082610
C          -2.85942769611312    0.52083093615902    0.60263549194721
C          -3.64863502848794   -0.22826293774024    1.48911800282418
C          -4.98688487128131    0.03730115017911    1.63231681115280
C          -5.59850421866424    1.06181842013887    0.89320968020710
C          -4.80625806646739    1.81241518091155    0.00423445669098
C          -3.46911017632407    1.54947639225885   -0.13424996681963
N          -6.93776669135013    1.24135603935289    1.08120627013929
N          -7.47712106547526    2.21599671212115    0.43504007154900
C          -8.80887324063474    2.35604156832695    0.62187098769850
N          -9.46425249519947    3.32104106850293   -0.00278404779750
C          -9.72794779751284    1.59245295268968    1.43377129555942
C          -9.74117633485912    0.51107288184716    2.30451595840925
N         -10.87553753351597    0.12705008644596    2.86244548955602
C         -11.98644148880789    0.79594435899886    2.57136798424971
N         -12.12024343616892    1.83404003735346    1.77013105632789
C         -10.98013728695389    2.21643545762422    1.21124691691342
N         -10.75815002487811    3.24603486803115    0.34085168122541
C         -11.66516400661952    4.14582044967024   -0.17821659815075
C         -11.45597042692752    5.20635842103003   -1.01820632174662
C         -12.73536465962408    5.77326675108970   -1.22188659152976
C         -13.60681277963631    5.01935456396963   -0.49720812770426
O         -12.96135006913970    4.02492538076952    0.14163307588198
H          -1.02132466811930    2.23590419491379    0.08537930984360
H           1.36643613057791    1.94937112076271   -0.10632422653672
H           0.48082293332171   -2.50692522526864    0.54744457941931
H          -1.82840744029976   -1.81094244243969    0.65415375146643
H          -3.19267615361586   -0.99725237131125    2.09466857667272
H          -5.58777774828512   -0.52772684738263    2.32758373707881
H          -5.28747135707498    2.58537161332879   -0.57483609365695
H          -2.89175907578769    2.11496507866203   -0.85081028289764
H          -8.84856858070557   -0.04517113782420    2.55434312282702
H         -12.89093136348187    0.44693410407118    3.05136698866958
H         -10.51571218482326    5.51792286032762   -1.41996259466877
H         -12.96871475124958    6.62556036132818   -1.82575634745131
H         -14.66687476892214    5.07963377513868   -0.35571101109088
