21
         -39.185322331652          0.000749203237
F           1.03503180770277    0.04713059472004    0.16838943132509
C           2.38058186849850    0.05148858323276    0.08157120203701
C           3.04186395452541    1.26645521424704   -0.00198265045059
C           4.41684337695235    1.26771722665304   -0.10467351522881
C           5.12592399613978    0.06152077714494   -0.10181754215781
C           4.43035481440780   -1.15238449026078   -0.01568979204300
C           3.05539338907565   -1.15929118426255    0.07111616254791
N           6.49456256174926    0.14604005090404   -0.25799078630315
N           7.16530640406234   -0.88414614452342    0.06270259015070
C           8.50728588117705   -0.81800577787809   -0.16852941252877
C           9.28984987234633    0.17109684222602   -0.83359732946620
C          10.56683617515244   -0.31086928814914   -0.77794918897942
N           9.28529340823513   -1.81758244866541    0.24759090352265
N          10.50779804189878   -1.49632432628396   -0.12099574143332
H          11.27262943784390   -2.11656017805168    0.09781818215551
H           2.47594462730340    2.18468656543967    0.00870064013068
H           4.96632298865742    2.19351070311623   -0.17042749362215
H           4.99643962775660   -2.07098608896161   -0.02977303472498
H           2.49849233643971   -2.08143832563313    0.13129441544554
H           8.92955212230105    1.07600372822627   -1.27450761876901
H          11.49302330777446    0.08439796675965   -1.14405942160782
