30
         -52.486270686027          0.000355285927
N           1.40843948777209   -0.05641523319501    0.79734528538097
C           2.54579839417721   -0.09370045071994    0.64886506748587
C           3.94309053751255   -0.13523147500373    0.46365499675275
C           4.77422766117005    0.70309190405378    1.21617687555365
C           6.13398539646047    0.67678683335389    1.02081699488751
C           6.69884934386181   -0.20567931663540    0.08724321471903
C           5.85850567142953   -1.04788612737488   -0.65990301294842
C           4.49707836254295   -1.00956436722636   -0.47739816922713
N           8.04111741797684   -0.10452354385030   -0.15211043184970
N           8.66197382158295   -1.13998716353443   -0.56015386906459
C           9.94255396314730   -0.96170020364820   -0.94637785483154
N          10.66285876102384   -2.02622027459606   -1.30663845607648
C          10.74119220890533    0.22870068586205   -1.09185565043737
C          10.54859032406740    1.59434534228686   -0.89719295842924
C          11.60673702172577    2.43387146636228   -1.16528384169791
C          12.84019563471958    1.94679460293743   -1.61806556972278
C          13.05701057122197    0.60258380132818   -1.82070223156709
C          11.98966111314318   -0.24706207660476   -1.54957951280328
N          11.85717959649110   -1.60300126663189   -1.65132082901584
N          12.85334682262328   -2.48916165757273   -2.00408364553720
H           4.33518728766614    1.37191310433785    1.94204035067227
H           6.78899161271302    1.31356807801849    1.59533223930620
H           6.31011877610309   -1.70840469782334   -1.38481944571037
H           3.84619471976738   -1.65308312939702   -1.05170684429321
H           9.59799630024013    1.96509526731086   -0.54948936908592
H          11.49092178629213    3.49809021568374   -1.02456792898629
H          13.63826580491611    2.64759149028197   -1.81191632833270
H          14.00504215298663    0.21927853413397   -2.16317611842102
H          13.09721907219356   -2.40121979432551   -2.98961457607562
H          12.51750037556728   -3.42996054781074   -1.81520838064557
