34
         -61.387278333609          0.000304431389
H           1.14294458550959    0.32902749238979   -0.15609699228823
C           2.21981908025168    0.25513892799777   -0.19432937225472
C           3.00264322398743    1.27085571831291    0.33445759899813
C           4.37856429947199    1.17718166539790    0.29176215506032
C           4.98739660055456    0.06124338492720   -0.29310293593411
C           4.18928121561319   -0.95995948532685   -0.82760953919658
C           2.81611199083840   -0.85806501234238   -0.77188204405526
N           6.36660112836735    0.05999425221528   -0.28808673963653
N           6.93677459830386   -0.92137380504563   -0.85687148541035
C           8.27689373495686   -0.91843783073562   -0.99616749140025
N           9.03685593594989    0.16166283075304   -1.14313904876139
C           9.06639838389074   -2.10373193181641   -1.18853086315951
C           8.96025601190202   -3.49014790565182   -1.17558091101069
N          10.01342916985654   -4.24083558312921   -1.41127335257658
C          11.19898858476965   -3.64919754077329   -1.65507505809487
N          12.23352601770791   -4.46920584120927   -1.90440958554012
H          13.14390755201611   -4.07466118205407   -2.05084716230715
H          12.09556639488189   -5.46030428486432   -1.84073178255948
N          11.44045600691574   -2.33651197344407   -1.68120443667086
C          10.36419929414381   -1.60532576009614   -1.44678196674738
N          10.28369204002001   -0.24786263820259   -1.42412222388493
C          11.31062708006748    0.62828058643164   -1.67727871723136
C          11.25572669782909    1.99305908565429   -1.66685560776536
C          12.50768690181844    2.56876327119705   -1.96231387333346
C          13.47443559538131    1.64183855351046   -2.18602857137436
S          12.89020313110387    0.02471604470500   -2.04643765950908
H           2.53382673429741    2.13516750954488    0.78147233543031
H           5.01001584243386    1.95377277678924    0.69421846149454
H           4.67341476475294   -1.81769789820324   -1.26980847345240
H           2.19979778103207   -1.64668066351570   -1.17904234223625
H           8.03028073596206   -4.00706991080025   -0.98128124816908
H          10.35401814296697    2.53582432391835   -1.45500483323590
H          12.67657643702586    3.62961309032899   -2.00360400806153
H          14.50578430541892    1.80566973313666   -2.42574222512538
