32
         -62.558223247929          0.000506061749
C          -1.12828689174206   -0.04101938644919   -0.24774761279829
C          -0.29564788457775    1.02403120045637   -0.03676267727099
C           0.92749366110481    0.44509603908042    0.35552330669638
N           0.84250533934501   -0.86231170063101    0.37913798076282
N          -0.40940235488315   -1.16782295325581    0.01266862291777
C          -0.81105245021145   -2.49476027455519   -0.06176118697852
C           0.12524930614284   -3.49291425713432    0.22695490321124
C          -0.23257616366586   -4.81741348984648    0.16065060323524
C          -1.53929898859279   -5.18188945891659   -0.19613353825426
C          -2.47568927472257   -4.17422538198984   -0.48174373064172
C          -2.11689753000295   -2.85022897163147   -0.41550373897572
N          -1.80887929078154   -6.52543173807804   -0.24167793299212
N          -3.00277840387637   -6.85471231027606   -0.56324544018026
C          -3.24069360483626   -8.18916405651409   -0.60204417682317
N          -4.44617885429132   -8.63100059320420   -0.92805979059540
C          -2.37346800087995   -9.31157952778813   -0.33633011200455
C          -1.06158109127371   -9.59461202010651    0.03410936051066
N          -0.67203401853345  -10.84623654760863    0.17293108985264
C          -1.54667415901399  -11.82375367743254   -0.04611798159586
N          -2.81034082904557  -11.70877024152994   -0.40229318431107
C          -3.19895321973830  -10.44999315540378   -0.54058894372700
N          -4.40044643387647   -9.94208945740221   -0.88679220696298
F          -5.52298829876561  -10.64443555151521   -1.18521793994749
H          -2.15154416491608   -0.06450015296083   -0.55862813195716
H          -0.52106177824557    2.06457681169005   -0.14541793175501
H           1.84502082519954    0.93429167965411    0.61490302382460
H           1.12388029096624   -3.19139785997643    0.49897761848058
H           0.48105390662519   -5.59584695838862    0.37996472690904
H          -3.47756930196788   -4.46935915478585   -0.75293425554756
H          -2.85155093624603   -2.09249780620951   -0.63733517795725
H          -0.33077694712173   -8.81998024617022    0.21777695123529
H          -1.17800245757508  -12.83172880112165    0.08154750363943
