35
         -57.128517460653          0.000559778696
C          -1.14850880379797   -0.10995983619711   -0.02596780891305
C          -0.39955205893268    1.07816639620954    0.06412250076537
C           0.93336549585156    0.84890201488889    0.18997723302107
S           1.30089293284412   -0.82680243703976    0.20406141114490
C          -0.38378436154542   -1.24681822167816    0.03364828609571
C          -0.79844440903085   -2.62874387980897   -0.02485613872984
C           0.12428965819868   -3.66075752497958    0.18730248380315
C          -0.25598966450552   -4.97916177392393    0.12490357470827
C          -1.58907555476334   -5.32065243966852   -0.13798292611788
C          -2.51752754051797   -4.29107995540283   -0.35612993832218
C          -2.12794819023621   -2.97555706234010   -0.30283457579240
N          -1.88514068516781   -6.65599826161209   -0.25484019123398
N          -3.11986077648517   -6.97883478741363   -0.16929094238403
C          -3.42936150417929   -8.28117403991226   -0.38609486772862
C          -2.62581095515803   -9.35315826921174   -0.75093042654367
C          -4.76890862196026   -8.79808392848983   -0.28092910326806
C          -5.99701015724544   -8.23047772055635    0.04063345126761
C          -7.11182672465975   -9.04211155150223    0.04070146775009
C          -7.02400788911408  -10.40026081225426   -0.27140470443506
C          -5.81662823486752  -10.98652333722404   -0.59259411216519
C          -4.69313873999611  -10.17265318727901   -0.59389762204729
N          -3.38102860196384  -10.46905958227668   -0.87166754593902
H          -3.03707566948391  -11.38081080664999   -1.12676515913881
H          -2.21847846689470   -0.11652587698937   -0.12180430715069
H          -0.83497847206267    2.06115506371720    0.03706216781157
H           1.72958889512179    1.56157574147041    0.27546075603349
H           1.15333635966242   -3.40753097312741    0.40067534629163
H           0.45797409608236   -5.77078437929148    0.29284336882261
H          -3.53832255518043   -4.56264844998853   -0.58036781616728
H          -2.85634834761342   -2.20008749703973   -0.48418777424157
H          -1.56749209670547   -9.35969103663595   -0.92650262212594
H          -6.06113478899464   -7.18151885406178    0.28242011294527
H          -8.07724004788608   -8.62503670063207    0.28635558075647
H          -7.92017992853710  -11.00256743774000   -0.26086660083554
H          -5.74779359027553  -12.03700859535871   -0.83414255793733
