32
         -51.997320075633          0.000636626108
C           1.12068641216294   -0.03049082626052    0.32142119101458
C           2.59266977916139   -0.06327388447917    0.05453502384753
C           3.34060392455257    1.11189370520447    0.09255743310634
C           4.69172381328263    1.10055327204808   -0.17429666344341
C           5.33974105066364   -0.10388222142153   -0.47185937991909
C           4.59023176684329   -1.28727659853273   -0.51353612479737
C           3.23781082175987   -1.25755740057960   -0.25708690795169
N           6.68546885256392   -0.02793241806482   -0.75211503629577
N           7.32271323305468   -1.13374224686866   -0.78124579445992
C           8.64148976762924   -1.06223365336246   -1.11073445494763
C           9.45487858843003   -2.16901999828048   -1.09646606605313
C           9.46241538217538    0.05817812677809   -1.53424551882234
C           9.21544137549073    1.40918131386218   -1.74452519272094
C          10.26405539477360    2.20562422733320   -2.16204130859246
C          11.53893692891970    1.68284645005231   -2.37179972102068
C          11.80738066524563    0.34133419857854   -2.17157873039040
C          10.75423604800448   -0.45221811165344   -1.75314965018180
N          10.72870930160312   -1.81904256746289   -1.47731522432873
C          11.76287642114284   -2.63554056968204   -1.56618930390236
N          12.66717067089929   -3.33563340566978   -1.64208252367391
H           0.89701328560698    0.61811253784941    1.16621971278727
H           0.73876783990185   -1.02693117027633    0.52897640477876
H           0.59302062458004    0.36309606148916   -0.54807447643564
H           2.84813959332623    2.04387112775888    0.33202898750820
H           5.27381760625631    2.00886039039503   -0.14074584071216
H           5.09546865323551   -2.20916899382489   -0.75942971937674
H           2.66560967991206   -2.17379426883879   -0.29680549473653
H           9.21508252829453   -3.18128032979325   -0.83435472790247
H           8.22741937609753    1.80765063947463   -1.58150290774256
H          10.09696453377400    3.25884242819953   -2.33133309952124
H          12.33308279813773    2.33718072769990   -2.69795239366960
H          12.79100328251767   -0.07318654167071   -2.33317249144954
