22
         -39.476089421007          0.000659278003
H           1.05369629483361   -0.01203686129161   -0.04761439602275
C           2.13280206794520   -0.01918218539482   -0.09063781056058
C           2.82819796674949    1.17770509501932   -0.18460022034251
C           4.20648012986569    1.17326419960748   -0.24577647699592
C           4.90343651821968   -0.03955140355472   -0.20545287255999
C           4.19455204814720   -1.24539840150103   -0.10884339833743
C           2.81790908228777   -1.22681821802032   -0.05383410351115
N           6.27658835796063    0.04859133240213   -0.29679627746249
N           6.92814746806700   -1.03069618239160   -0.13757805432355
C           8.27619657939623   -0.93951229642969   -0.32238408549644
C           9.04539643023419    0.08501458198201   -0.97086998934753
C          10.32367256788723   -0.36869860380701   -0.94005236642889
N           9.05568802758241   -1.93505345693816    0.06189706591023
N          10.29430821030338   -1.58968926152202   -0.30316927810981
C          11.35441718288712   -2.35443432584492   -0.06669880100157
N          12.29071873244594   -2.98503206212366    0.11972967157792
H           2.28968277784305    2.11329983895861   -0.21246110063908
H           4.76897320002465    2.09128898290157   -0.31813507575058
H           4.75127531455169   -2.16971952285011   -0.08417563783917
H           2.26868973313207   -2.15426281638257    0.01736619630085
H           8.66205007354419    0.99248733825560   -1.38692758967319
H          11.24604123609284    0.04374422892969   -1.29773539938612
