41
         -70.216799714186          0.000709348625
C          -0.99592577265754   -0.11921796000081   -0.71234037913555
C          -0.33472077973382    1.09150141564721   -0.43736594056495
C           0.83983897069296    0.90895489159613    0.22152509227349
S           1.16083604338874   -0.74762608044395    0.52337148183097
C          -0.32301881335033   -1.22664353031107   -0.26032400297044
C          -0.68448062925314   -2.61973238405916   -0.36734170814215
C           0.10178235205811   -3.60825378012568    0.23836710891422
C          -0.22752988371625   -4.93780674474974    0.13721362160966
C          -1.35939094576024   -5.33450671952304   -0.58790925845487
C          -2.15575723036277   -4.34829276958005   -1.19257214433477
C          -1.82373400386943   -3.02147399336524   -1.08154812939342
N          -1.61791860089032   -6.68188094907570   -0.63273428804220
N          -2.56784009758615   -7.04955981907450   -1.41084696366855
C          -2.83224651479429   -8.37626938410168   -1.42899019335148
N          -3.76540444209409   -8.83228745365557   -2.25031869022752
C          -2.26332471608156   -9.47276891615414   -0.68051325125631
C          -1.28037193256953   -9.59159800592168    0.29550495894756
C          -1.00938355273128  -10.85187703728967    0.78207529365365
C          -1.69979989895693  -11.97387390937120    0.31575411961652
C          -2.67950314957116  -11.87802749791023   -0.64998397243629
C          -2.95518791136289  -10.61023669145154   -1.14861522325496
N          -3.84772123010540  -10.15413783201645   -2.09685613238919
C          -4.75335848050216  -10.84527015099375   -2.87015212193628
C          -5.62458997279315  -10.27660017251249   -3.75913719830598
C          -6.42117552217064  -11.23315600662636   -4.41816450378951
C          -6.15236257205051  -12.50544898555769   -4.03099364041311
S          -4.90938458028398  -12.57385898033883   -2.84152229062954
H          -1.94046685011400   -0.16248539913145   -1.22286187290523
H          -0.71589453625062    2.05708650097226   -0.71820920860489
H           1.54175821944622    1.64870416895617    0.55211875573652
H           0.97998121159988   -3.31186644874532    0.79428760732151
H           0.38283746474018   -5.69686596519456    0.60170995018849
H          -3.02956859326193   -4.66421873871645   -1.74187801763017
H          -2.44514578311294   -2.27846285684873   -1.55735221969508
H          -0.75964028256858   -8.71545344988043    0.64561353936795
H          -0.25094690884801  -10.98282683524269    1.53935695207284
H          -1.46005146045261  -12.94438884578280    0.72384796824441
H          -3.20235540160224  -12.75541654593515   -0.99363234618359
H          -5.67248768382427   -9.21584831635344   -3.91595052471887
H          -7.16512615711654  -10.98153469203081   -5.15197295340879
H          -6.60202937152696  -13.41939312910008   -4.36292927393340
