38
         -69.446039660102          0.000957589559
C           1.13938067107349   -0.01425360879367    0.81301440731445
O           2.32191022299147    0.20055474995234    0.07857310942496
C           3.03155533216857    1.33328086195027    0.29249781437526
C           2.68979348700538    2.33200253776561    1.20479284141536
C           3.49217467998709    3.44472563395251    1.33857643215339
C           4.65092909660911    3.59307935886206    0.56979910857501
C           4.98664770092832    2.58482579814146   -0.35149230781326
C           4.19112712602844    1.47713667582447   -0.48333236445628
N           5.36903508562231    4.74562688436716    0.77158261880247
N           6.45747189155216    4.86190007939682    0.12654655539082
C           7.13600210557901    6.02529235588504    0.15621476212930
N           6.59564005547418    7.23495881099834    0.22414328852653
C           8.54766619721158    6.13362717331810   -0.08527040213128
C           9.66614288278649    5.32770405724678   -0.25876107804349
N          10.84843187218401    5.86452167807079   -0.46553053486926
C          10.95323522686181    7.20701354598781   -0.49133373317789
N          12.19516588310461    7.70221504389073   -0.66208092233309
H          12.29418505927019    8.68798114840344   -0.82070251602649
H          12.92789998235254    7.06675401457918   -0.91857907115237
N           9.96580049062138    8.09031445575480   -0.33931708996366
C           8.78559934137711    7.52903087896722   -0.13734606023730
N           7.57788910227283    8.13966196399897    0.03645882749526
C           7.27852872187516    9.48328451309736    0.00673091358432
C           6.07445720150826   10.10926180781044    0.18683898407004
C           6.35169083743672   11.49001788761254    0.05587525556777
C           7.68631323964946   11.58990528700272   -0.18864792774414
O           8.25917790049713   10.36959739892520   -0.22130659254490
H           0.75231836432682   -0.97330907654218    0.47267962576608
H           0.39779186805424    0.76592483329740    0.61558320036191
H           1.33855043783301   -0.06536183761889    1.88783656367670
H           1.80142140913303    2.24664734533173    1.81067315673742
H           3.23968529658176    4.22475902017232    2.03980189600701
H           5.88024842940310    2.70448310552008   -0.94459428208296
H           4.43276014172298    0.69184745577992   -1.18266152700203
H           9.61876220392808    4.24718218989125   -0.24301276316540
H           5.13862066682550    9.63182878038441    0.38349981772002
H           5.64958939072808   12.29405278813137    0.13541021838233
H           8.32834039743919   12.43196440268276   -0.35026022473437
