35
         -65.907317823988          0.000511171904
N           1.27767355328639    0.31424489718911    0.24665993970476
C           2.41835051302112    0.26152635678860    0.13357088993297
C           3.82092708494459    0.19087151454007   -0.00239255076820
C           4.62607448350865    1.21271715186203    0.51503114223110
C           5.99117307041412    1.14939670528569    0.37192402765164
C           6.58606183751089    0.05090240191223   -0.26839416118387
C           5.77022232141409   -0.96998868121451   -0.78648036029502
C           4.40380980571326   -0.89820614386012   -0.65903871123113
N           7.93655033115741    0.09428567905077   -0.46751295695806
N           8.55714141972177   -1.00941914791927   -0.58922629491590
C           9.87330233709197   -0.96259473820007   -0.90012942681280
N          10.61952189652579    0.12400095295831   -1.08082396301200
C          10.67547821384544   -2.13950560013403   -1.07580880689115
C          10.58571734965288   -3.53005728632447   -1.04696769664451
N          11.64353811421014   -4.26715867024449   -1.28879028663400
C          12.81853095783906   -3.66547416862863   -1.56652435026991
N          13.85815973604159   -4.47713294764293   -1.81058557691767
H          14.75729649987664   -4.07774309396789   -2.00619438177276
H          13.72446605844139   -5.46966808611960   -1.75724713662984
N          13.03909648435880   -2.34978919087316   -1.62456525222758
C          11.95772168897845   -1.63166423110794   -1.37754340423919
N          11.86080449440588   -0.27114866967994   -1.36140578458258
C          12.89013846990713    0.60994039176068   -1.59069998191736
C          12.82974140434789    1.97526728232284   -1.57930959796087
C          14.08327227173419    2.55479033080313   -1.85620031416843
C          15.05548588926114    1.62969207123909   -2.06922815457402
S          14.47644575344037    0.01212468268627   -1.93950175818299
H           4.16284193237272    2.04950119416439    1.01694842788353
H           6.62955011942999    1.92497586968920    0.76514810454691
H           6.24334145142501   -1.79473961294075   -1.29796852014464
H           3.77157447809716   -1.67897057046923   -1.05676717930550
H           9.66547676503426   -4.05373926724151   -0.82793637255706
H          11.92328030330960    2.51522912652490   -1.38047099963835
H          14.25038104269583    3.61584033662518   -1.89439684188746
H          16.08884186698492    1.79800316116585   -2.29736170962778
