25
         -49.261597348078          0.000498029784
H           1.15151116473201    0.07224403132587    0.24426502565519
C           2.22656022500321    0.04988408293114    0.14541670912489
C           2.99203694527521    1.07124453783096    0.69058629597525
C           4.36485332889242    1.05307673147512    0.55806407632372
C           4.98704687594065   -0.00807061338738   -0.11107676633372
C           4.20746968943902   -1.03687725442271   -0.65954870659066
C           2.83617888483647   -0.99870833688884   -0.53142567829178
N           6.35569360930832    0.06693477752896   -0.23344280007486
N           6.96073858587708   -0.98944104675742   -0.59101024873938
C           8.27328425923501   -0.89027478661609   -0.89898661839178
N           9.06136288012591   -1.95619590103519   -0.87588181547174
C           9.00175842299870    0.23433993968436   -1.43288677946539
C           8.81690061082075    1.57551790674331   -1.75005681870724
N           9.81875767424645    2.27867234941120   -2.24176202273746
C          10.98640831821946    1.67778184346423   -2.45166448645505
N          11.29743394170424    0.41707701292701   -2.22707960509283
C          10.29679403860102   -0.28245886988213   -1.71111210297459
N          10.23184745334982   -1.57753486310699   -1.34560698354163
F          11.23971178204052   -2.48470533550642   -1.38622670016421
H           2.51138159166819    1.88347954469999    1.21515468454359
H           4.98102390430895    1.83462503135578    0.97490759222301
H           4.70553394031072   -1.83816819653748   -1.18423924470101
H           2.23273062951703   -1.78623304003136   -0.95828260231515
H           7.87409991226401    2.08497451705255   -1.60436486557805
H          11.77237133128440    2.29516593774146   -2.86384953821957
