29
         -52.790983863347          0.000832956523
C           1.18887729675137    0.13621500157011    0.41046034658502
C           2.66853987662730    0.10557741929024    0.20726582125651
C           3.49703338401843    1.05571385943811    0.79961511878931
C           4.85899083983061    1.03168220185100    0.59382564595197
C           5.43009137177192    0.04014852028314   -0.21482482546747
C           4.59798432662346   -0.92224035637149   -0.81215345910429
C           3.24159519881124   -0.88047584110339   -0.60003727145316
N           6.79044784864201    0.09631298203156   -0.37572680754873
N           7.32190546677699   -0.83009190991683   -1.07679750833241
C           8.67339070684296   -0.75315100261957   -1.19675795721038
N           9.30528278089099   -1.59604017498705   -1.98217627591028
C           9.62082545715184    0.13162713745830   -0.55027416914372
C           9.65767598749906    1.19413010442737    0.34542718412374
N          10.81563437426386    1.74215019633597    0.66571041768934
C          11.92690665249143    1.25688760909885    0.12760337912528
N          12.03718245566047    0.25433225776291   -0.72547962566635
C          10.87468838809652   -0.28554253978772   -1.04766106822165
N          10.62816769636927   -1.33141001725088   -1.90844873081703
C          11.53184110156496   -2.01871704604630   -2.59977687516832
N          12.32159639250815   -2.60051422788551   -3.18697933919063
H           0.91026351226872    0.86137688722894    1.17034317176658
H           0.82403569964477   -0.84593855609960    0.70661756343165
H           0.69136209379542    0.40363476703448   -0.52193590736106
H           3.06300069283789    1.82125949392340    1.42638542121507
H           5.50526750924155    1.76568452375735    1.04993844531715
H           5.05225014596388   -1.67667485110165   -1.43619936683293
H           2.60141692760400   -1.61845180949025   -1.06220139416867
H           8.76765899107997    1.60486176124726    0.80060525001872
H          12.85095682437099    1.73665360992227    0.41819281632668
