43
         -78.457649296748          0.000527579006
C          -0.68585250540843    1.12487745480909   -0.07805708817222
C           0.58614311468818    0.93861764767947   -0.41032595508197
S           1.45817760916245   -0.59422898004745   -0.30537256039361
C           0.16713015192717   -1.54617161014103    0.43556138614057
C          -1.05936703867886   -1.11098287205455    0.69939761498597
N          -1.55299871211909    0.16311128760300    0.43398130900523
C          -2.87851598513629    0.48412159345617    0.69174136450004
C          -3.56579165347982   -0.08339871160378    1.77453576001839
C          -4.87602024518518    0.24347721185399    2.02070133620926
C          -5.55723719771599    1.15274619382247    1.19777166519704
C          -4.86923464636073    1.71359248980352    0.10626985185154
C          -3.56073779463773    1.38795450975333   -0.13825301677046
N          -6.86868716584731    1.39329268581864    1.49787688020614
N          -7.43407415986695    2.34523450882924    0.86315257022632
C          -8.76169065180700    2.53040233023865    0.97221827297932
N          -9.67454731082857    1.58435926936371    1.15694317498085
C          -9.40773743306968    3.78787707295128    0.71257582993515
C          -9.09250843451161    5.11618905661113    0.45708074989629
N         -10.04489370266919    6.00526758229269    0.27690264847009
C         -11.32745269900845    5.60146925488949    0.35586352738729
N         -12.26065911133380    6.54735623883567    0.13970853963663
H         -13.22712121811974    6.30974005119166    0.26387395685029
H         -11.96768742776608    7.50007955486264    0.03078483143043
N         -11.76510514639311    4.36722583547465    0.60866450966142
C         -10.79045355542553    3.48945257370943    0.77812078613289
N         -10.89153546311274    2.15250977748045    1.03148617757802
C         -12.02736577224956    1.38082989642460    1.12974040324889
C         -12.15155614739790    0.04148896374969    1.38462208382728
C         -13.54363606828574   -0.20934275139119    1.37677593163204
C         -14.14543943698897    0.98389873311690    1.12222321178415
O         -13.22693750041492    1.95946421848762    0.96954639309108
H          -1.10806561936046    2.11640308374932   -0.14537904592130
H           1.19854149795497    1.74929999017957   -0.76213124535467
H           0.46245281718704   -2.55675764732567    0.65335637162806
H          -1.78104885232971   -1.79541740105802    1.11802121179224
H          -3.05390422377083   -0.75701329406486    2.44538740348565
H          -5.40176806644319   -0.17817309943109    2.86281228977400
H          -5.40299348252032    2.39163804886265   -0.54215354171028
H          -3.06201447139850    1.80159744049099   -1.00266508829429
H          -8.07394919149669    5.47454890212920    0.39144489655435
H         -11.35032520621342   -0.64608436628051    1.55084052410191
H         -14.02520084002748   -1.15127727886460    1.54023855069166
H         -15.17424105354087    1.26700455375924    1.02795552681479
