34
         -61.550658085130          0.000835322271
C          -1.17774765830434   -0.07297329173403    0.04694400798450
C          -0.44369380087784    1.12355309465770    0.13222118796895
C           0.89726666716597    0.91102307003331    0.20730595475276
S           1.28996412234821   -0.75673869090934    0.18162149014214
C          -0.39340685881269   -1.19893621137774    0.06005639747249
C          -0.78864044615844   -2.58447148260460   -0.01781262353651
C           0.14190427932433   -3.60495642115537    0.21695695659280
C          -0.22287836048167   -4.92714523975361    0.14327325896230
C          -1.53912212927558   -5.28084766051148   -0.18312784360888
C          -2.47789623859059   -4.26298217135696   -0.41809936263448
C          -2.10770922755690   -2.94425902386873   -0.33428895178836
N          -1.81896975000134   -6.62422470350024   -0.22951300819158
N          -2.98540896113935   -6.94382121467487   -0.64948554689240
C          -3.25055581008684   -8.27071470678244   -0.69089044437683
N          -4.45993401846857   -8.67378839774535   -1.06958179889501
C          -2.42133075513142   -9.41911948159100   -0.40805482000118
C          -1.10850445102502   -9.62959418846224    0.00699189081241
C          -0.68455160425082  -10.93107208986612    0.16046484529644
C          -1.53097309038801  -12.01886256605846   -0.09004148327872
C          -2.83287516193789  -11.84440990492658   -0.50375278347914
C          -3.26003493977754  -10.53102216650902   -0.65743866316050
N          -4.43676591807955   -9.97703788308612   -1.03995399366631
F          -5.56142786494958  -10.67267449599530   -1.37390274559711
H          -2.25072277970819   -0.09532401607050   -0.00844025996565
H          -0.89286137626094    2.10071401389217    0.13736717700243
H           1.68476014566608    1.63502032553856    0.27699077334910
H           1.15993222313640   -3.33970518347942    0.46475014236087
H           0.49580513366649   -5.71144691416607    0.32425395711571
H          -3.48951769946931   -4.54795390216166   -0.66371995956009
H          -2.83904367614074   -2.17434612489873   -0.52695985763672
H          -0.46308656682358   -8.78812185711529    0.19752782893458
H           0.32720819061997  -11.12668943089797    0.48256033892225
H          -1.14938382647783  -13.01968009351587    0.04454210605460
H          -3.49030779175352  -12.67618098934632   -0.70076416745430
