34
         -66.374807843590          0.000843761764
C          -1.01848217385144   -0.03848362494903   -0.47890941624000
C          -0.11786030736510    1.02448815584582   -0.26758635979877
C           0.98988508188879    0.46779890739190    0.29949665177098
O           0.83458525323031   -0.85206112115470    0.45214367180753
C          -0.39281281748661   -1.17757756010394   -0.02173125706040
C          -0.82101467727063   -2.55541073126563    0.01718686653199
C           0.01510682228489   -3.53846045488501    0.56378203621544
C          -0.37398350639480   -4.85562552764046    0.58788429977500
C          -1.62391768728181   -5.23391052746920    0.07629948157620
C          -2.46559518112835   -4.24838504593346   -0.46859347948769
C          -2.06843534834211   -2.93535780398074   -0.49786946689204
N          -1.90739122240147   -6.57355886737421    0.07575045064904
N          -3.10782454157574   -6.91613161253460   -0.14730299658537
C          -3.41526953687614   -8.20655604609223   -0.37036283359260
N          -2.63686348867616   -9.09194277276541   -0.99056500629019
C          -4.71205183097964   -8.77907883744389   -0.14387445002631
C          -5.94453438066724   -8.45772912146743    0.41926449978099
N          -6.92701073366003   -9.32749605905180    0.41372240295310
C          -6.72255012398025  -10.54346449859882   -0.13430847947320
N          -7.76374028520974  -11.38926471222691   -0.10157825400474
H          -7.66509426197320  -12.30415999516582   -0.50119043021065
H          -8.62876982621482  -11.08136065575032    0.30191465216054
N          -5.59616132262464  -10.98471210716475   -0.69834325824449
C          -4.62468040092675  -10.08933697441925   -0.68683376412688
N          -3.36316607836813  -10.18232316423353   -1.15063886018544
F          -2.86103996537842  -11.19891089445034   -1.91275502564622
H          -1.99582858925725    0.03399247036921   -0.90942198702986
H          -0.27107234297045    2.05722260942344   -0.50463488279980
H           1.91814708646350    0.89416960672048    0.62553317357495
H           0.97531135865909   -3.24564098323469    0.96048210111953
H           0.26387641738544   -5.61998166972931    1.00328983784767
H          -3.41918161109043   -4.55361953753708   -0.87317043800716
H          -2.71801074464049   -2.18698923191679   -0.92424644307971
H          -6.14656903331587   -7.49575161120684    0.86998696301428
