37
         -64.557690283402          0.000808347996
C          -0.70294791368705   -0.16327465356203   -0.39659312974872
C          -0.04625774621104    1.00725150150504    0.02394650434199
C           0.82351944756699    0.78172488171044    1.04373294102785
S           0.85447886938469   -0.86610615899206    1.51405352246809
C          -0.33368670693571   -1.28206132728656    0.30671215106593
C          -0.79243453463425   -2.64293862899361    0.16049363425865
C          -0.40615859186543   -3.62777154865893    1.07835137765840
C          -0.84442382028042   -4.92404030202854    0.95406989523524
C          -1.68596297775844   -5.28876218400172   -0.10475326109101
C          -2.07022885808823   -4.30824836296261   -1.03345276814979
C          -1.63355030903395   -3.01376647569930   -0.89950847159610
N          -2.07386789080545   -6.60731030242411   -0.14394750110240
N          -2.83012102518899   -6.94501111321466   -1.11146233323745
C          -3.16246632999307   -8.24581746029735   -1.25417440875047
N          -2.45689072082282   -9.29265500316615   -0.83675455061571
C          -4.28392795972707   -8.69759462938426   -2.02657603789611
C          -5.37969381943933   -8.20446100868861   -2.72554428494251
N          -6.21263721480626   -9.02683916548271   -3.32268638485485
C          -5.99159340960382  -10.35418215352489   -3.23496278945271
N          -6.88661190833270  -11.13733014374431   -3.86605529532024
H          -6.77030989202382  -12.13232752865033   -3.85226260593002
H          -7.63598241641989  -10.70399929191643   -4.37176885090283
N          -4.99396804573936  -10.96045994793626   -2.59268811548689
C          -4.16234246118848  -10.11021633803498   -2.00163956188959
N          -3.05032519543792  -10.40052420319949   -1.29046417655910
C          -2.49776094200201  -11.70034445940025   -1.04859964080796
H          -1.43111483048033   -0.16917340936797   -1.18644765015933
H          -0.21406498061713    1.97561507030514   -0.41240576380268
H           1.45129273766776    1.48547932438968    1.55349444292067
H           0.24307308384616   -3.35471152214311    1.89798416269785
H          -0.55022114182859   -5.68407510083830    1.66066763288779
H          -2.71679969714534   -4.59663537896197   -1.84842867749829
H          -1.93601913995447   -2.27422039874942   -1.62489078326904
H          -5.59182270963576   -7.14756720808119   -2.81559833679358
H          -3.13602411600497  -12.42761679631762   -1.54586684035276
H          -2.46551614102828  -11.89974752588232    0.02372525004657
H          -1.48286069174534  -11.75487104631825   -1.44518929439908
