30
         -56.519303509348          0.000582400179
N           1.17115928090571    0.30689223256290    0.14877213262223
C           2.52617554874193    0.20445640656793    0.09128234243062
C           3.32981950056741    0.80087074154098    1.07475113718976
C           4.69373903457668    0.66611120775556    1.03577276036292
C           5.30947867148405   -0.07374511136289    0.01369156181888
C           4.50258209717437   -0.67547724511692   -0.97013423127823
C           3.14081352989128   -0.53748876897099   -0.93083001224130
N           6.67450480511753   -0.11883070028543    0.03930400631533
N           7.25623730246409   -0.86017275286922   -0.80186913278517
C           8.58420364368577   -0.84723899879847   -0.99694000674835
N           9.30277897696764    0.23832063824856   -1.21337919706188
C           9.36450569711724   -2.03004379210780   -1.26795660129581
C           9.24726150274039   -3.41307811057719   -1.23948586615494
N          10.26707713199263   -4.17559847566743   -1.57125715103346
C          11.42414986079105   -3.58984274918625   -1.92772398029273
N          12.43429300071437   -4.41088709701094   -2.25540733890420
H          13.31550346463456   -4.01654042484452   -2.52746342560366
H          12.28878748156291   -5.40236845382274   -2.22224605346903
N          11.66881829400547   -2.27587776838366   -1.98839747673294
C          10.63025333230675   -1.53590505192171   -1.65552803199658
N          10.54491395234954   -0.16711540032314   -1.62895052399300
C          11.48758364306308    0.69011008476056   -1.98457142979377
N          12.31467568701005    1.42338336657921   -2.28413263963415
H           0.75611830136761    0.96665225415469    0.78282885477478
H           0.62362778445282    0.01433182673435   -0.64131934960235
H           2.85825049520376    1.37165250689537    1.86157193808842
H           5.32073745761991    1.12600824613362    1.78315604695795
H           4.98229877470850   -1.23933658293412   -1.75597588364389
H           2.52158557196399   -0.99583637072666   -1.68905605643353
H           8.33415617482037   -3.91920565702448   -0.95633639185865
