43
         -74.460075710950          0.000307315925
C          -0.85884768592200   -0.57471361568261    1.23640122888643
C           0.43097949308999   -0.88381272943774    1.17873728627915
S           1.57163119488294   -0.30589314649406   -0.04180996750578
C           0.44266650219621    0.69876654347080   -0.95955681153741
C          -0.84468071212391    0.86413053720035   -0.68048738426269
N          -1.54281317718905    0.26904431061006    0.36616301839924
C          -2.90094082676047    0.50891744813007    0.53769959098317
C          -3.75049984414927   -0.50185746383400    1.00899433009416
C          -5.09407918371879   -0.26866518682881    1.16692683745367
C          -5.64256910054347    0.99027447902329    0.88223893081818
C          -4.78849072190069    2.00497859468552    0.41659570195790
C          -3.44970435338720    1.76535159004431    0.24061582583641
N          -6.99468933516717    1.12242084497978    1.04186781321213
N          -7.46645376938978    2.31400237989963    0.97528749602454
C          -8.81219643920058    2.42733753031121    1.00249689814629
N          -9.36992152240389    3.60673005295002    1.23374591901141
C          -9.83623293055022    1.44514156800313    0.72662172165543
C          -9.84374806135108    0.09347710550864    0.40220285082870
C         -11.06613883771719   -0.50858428493544    0.19538480803169
C         -12.25985527175924    0.21242357886624    0.29664588608683
C         -12.27537774566737    1.55597384211608    0.60669676641455
C         -11.04493868842653    2.16465781704187    0.82260572870964
N         -10.69640811251129    3.45941892872185    1.14077278174408
C         -11.51003458259179    4.53970314584046    1.38778581082547
C         -11.17062009602096    5.82634588293161    1.71016537151852
C         -12.39899386231994    6.51096811712665    1.86296778723993
C         -13.37919558929066    5.60037218151794    1.62435575065605
O         -12.84701657655187    4.39176227789389    1.33286484812532
H          -1.45515538244607   -0.95536516698545    2.05183499526215
H           0.88829907045948   -1.52193425504961    1.91333124636169
H           0.89874108447559    1.17565221557185   -1.80845762564162
H          -1.45053943160835    1.47320695959756   -1.33421452636146
H          -3.35518154275813   -1.48592936315022    1.21299833125930
H          -5.75128170723800   -1.05049095317570    1.51511379361341
H          -5.21401698397868    2.97456623195107    0.20798707002529
H          -2.80712406587125    2.56688290606479   -0.09378635758967
H          -8.91555562653411   -0.44959718729097    0.32425320809783
H         -11.11044813183852   -1.55892937779363   -0.05200434026783
H         -13.19550424504750   -0.29816285277078    0.12224534448206
H         -13.19759283430615    2.10910376323781    0.67420870071990
H         -10.17759157016156    6.20591656830988    1.81840650959810
H         -12.52943889539379    7.54249774288135    2.11697539318528
H         -14.44799990131032    5.67000043894263    1.62703143162233
