30
         -51.228939463281          0.000616975193
N           1.25930811298038    0.04929423215639    0.38184491748913
C           2.61422396066298    0.04632301318459    0.19222204236611
C           3.41694516834141    1.03177309192952    0.78061890901631
C           4.78130605765933    1.00113959412716    0.63001104236715
C           5.39610559504422   -0.02072580788627   -0.10744418983427
C           4.58963663925612   -1.01210584562919   -0.69294406938862
C           3.22693614560325   -0.97487712505652   -0.54792888849041
N           6.76041224466744    0.04375611485625   -0.22233869563865
N           7.33299225171138   -0.94312014835009   -0.80129896872403
C           8.67722410043948   -0.82172519812882   -0.97319102238985
C           9.52217717496981    0.32508525885353   -0.85612973016232
C          10.76079196065076   -0.12378553104377   -1.20048589099136
N           9.38539237596221   -1.87683496111813   -1.36537584032106
N          10.63778562611595   -1.45160711961829   -1.49319463244925
C          11.63605270500028   -2.31926165555138   -1.87275514900033
C          11.50544831939291   -3.65115298966679   -2.14363807231497
C          12.73437959722225   -4.24461164911308   -2.49939873356785
C          13.76961544744210   -3.36785706711020   -2.49495833331812
S          13.27593955967185   -1.77760066928187   -2.05358487308812
H           0.82995538386923    0.89296532632381    0.72065976466209
H           0.69530651464230   -0.53376703448863   -0.21208731650971
H           2.94698143920856    1.81849682867775    1.35385255520059
H           5.40528819876142    1.75835721574613    1.07901949310258
H           5.07297184005419   -1.79121733401867   -1.26232917167609
H           2.60716178986785   -1.73429819270565   -1.00454497676057
H           9.21852155795750    1.30985359740070   -0.57048623846588
H          11.70986426035269    0.37101921469294   -1.26203756896946
H          10.56263048604490   -4.16051458993054   -2.08317937069200
H          12.84066240679316   -5.28502104659029   -2.74801267518868
H          14.80127307965426   -3.54577952266067   -2.72268431626231
