33
         -54.899440327539          0.000937906001
C           1.14815516355248    0.10297020110282   -0.04527843291675
C           2.63966368977329    0.04039506747406   -0.14965222834312
C           3.43979375721195    1.06841692739741    0.33811187024868
C           4.81369074768296    1.00242275106020    0.24024307493051
C           5.42469360773857   -0.10315337100839   -0.35951744198238
C           4.62080123394770   -1.13802588971409   -0.86013580356369
C           3.25201949809518   -1.06033294469079   -0.74978053226224
N           6.80201529694731   -0.08310121030038   -0.39969102282960
N           7.36898292449380   -1.07881094299273   -0.94881941540306
C           8.71317288088997   -1.06309353709313   -1.09257345995063
N           9.47540218302445    0.01721696806563   -1.22226935778722
C           9.51093005666144   -2.24157878296415   -1.27126316511946
C           9.40310609394333   -3.62755485792361   -1.26838085768467
N          10.46187070650330   -4.37774499975242   -1.47586417965673
C          11.65311827243566   -3.77985189567671   -1.67954507192477
N          12.69770795213411   -4.60858240564319   -1.86756177494578
H          13.60630257010917   -4.22474355420215   -2.04714403070763
H          12.53490025523628   -5.59755456326513   -1.88408147031979
N          11.89952191183279   -2.47095486900104   -1.70686238169046
C          10.81523035881968   -1.73239032682808   -1.49901253836543
N          10.72598029738078   -0.38483525034438   -1.47419938637755
C          11.78134569762174    0.55354185775207   -1.71623984840557
H           0.83264757105914    0.95581025345219    0.55010991042546
H           0.75961408527329   -0.80691529132947    0.40973567665947
H           0.70569467489148    0.19082864257076   -1.03758614207997
H           2.97667717261495    1.92757694919962    0.80227611653466
H           5.44152932264376    1.79437900905998    0.61765707720191
H           5.09977858547372   -1.98888979608044   -1.32067086593892
H           2.63491339514944   -1.86215378440218   -1.13123281481500
H           8.46639827810149   -4.14386425091062   -1.10680567410445
H          12.68542029789979   -0.01446120155365   -1.92490206655501
H          11.92869014721542    1.18577247537631   -0.83920452416008
H          11.52974131364159    1.18856262316590   -2.56696923811039
