30
         -51.712582404840          0.000804500627
N           1.19857461402088    0.00087457793445    0.22802378021925
C           2.55380828154001    0.01825315800231    0.03791311926449
C           3.34432990913149    1.00976933301471    0.63281623516224
C           4.70908916507931    0.99705059418175    0.48305132751970
C           5.33707201522254   -0.01471154821688   -0.25726575326763
C           4.54291919949649   -1.01161603583118   -0.85023277257319
C           3.17947867772272   -0.99044698740295   -0.70863781510368
N           6.70003336904199    0.06681456801001   -0.37254788224081
N           7.28835321429172   -0.92155754026320   -0.93250847666990
C           8.63026046641604   -0.77898405150995   -1.10939025233639
C           9.45374287775673    0.38388771880293   -1.02827703366932
C          10.70227525101549   -0.04932151222163   -1.36525190020964
N           9.35848262108106   -1.83188718225068   -1.47442460521134
N          10.60334899774777   -1.38423406357208   -1.61874043205836
C          11.60638455793912   -2.25765384973089   -1.97865235149904
C          12.95350923088636   -2.11296580631019   -2.21011750235705
N          13.48334931251678   -3.31798462081240   -2.53506546202433
C          12.50034451927377   -4.17331415078419   -2.50684534908965
N          11.32860810596476   -3.58136214402623   -2.17213778501751
H          10.40415068860362   -3.96953123939731   -2.06737640140320
H           0.75955721914173    0.83831518558934    0.57104738556704
H           0.64434980446430   -0.57280031262080   -0.38450974229189
H           2.86451551615599    1.78773766902304    1.20985515092598
H           5.32313613916702    1.75979724073940    0.93635235729092
H           5.03546785010937   -1.78132233836199   -1.42452188888017
H           2.56928021941752   -1.75331108668004   -1.17238895352346
H           9.12921337125881    1.36942275131172   -0.76994493442458
H          11.64062204723461    0.46047201499359   -1.44504187764700
H          13.56301291807441   -1.23441607948273   -2.16453812765649
H          12.59434984022748   -5.21877426212782   -2.71873205679517
