33
         -55.241341710912          0.000539703749
C           1.61179359735789    0.45959802705201   -0.02784116801943
O           2.95512359013039    0.18940567316157   -0.34722221888574
C           3.26600736494787   -1.00607518309882   -0.91444460144021
C           4.62046820534816   -1.20494684194761   -1.20579178386220
C           5.04431967593993   -2.36978339089796   -1.79568944757474
C           4.12906274807506   -3.38887478084758   -2.09336044372434
C           2.77649448228767   -3.18552317542529   -1.79546534412071
C           2.34689676946312   -2.00841877661413   -1.22128603983396
N           4.62399758988079   -4.50392563445886   -2.72744614748740
N           3.87357352049341   -5.53684748134540   -2.74612186087704
C           4.35105298865622   -6.60561676443890   -3.44506613309737
C           5.51509437489056   -6.73803892694600   -4.26678477844206
C           5.51787752813719   -8.00661088697520   -4.74709869326492
C           3.70379402852021   -7.82875601984130   -3.47515856669362
N           4.41640824385326   -8.67570055434067   -4.26199668403156
C           4.11829745714773   -9.99356779410470   -4.54299677042648
C           4.68673251304574  -10.88860000027552   -5.41875351831666
N           4.04879103915766  -12.08204258144161   -5.33459014162402
C           3.11778611187070  -11.93656990990472   -4.43925646506092
N           3.10928035823906  -10.68107095233700   -3.91887533676278
H           2.49476711912598  -10.32152355733002   -3.20792884537151
H           1.60759473408796    1.45666693170970    0.41001676441703
H           1.21938697773621   -0.25646742583638    0.70136365942534
H           0.97754611067305    0.45471516567790   -0.92033913380161
H           5.31411961872358   -0.41612627075038   -0.96057258799601
H           6.08679946214326   -2.52749256362307   -2.02479607254879
H           2.07292500096156   -3.96640937369003   -2.04258022974134
H           1.29533943685882   -1.87673644796154   -1.01686429383449
H           6.23108356198298   -5.96524044110725   -4.45586383639224
H           6.21336519142390   -8.50325631701843   -5.39275001445024
H           2.79439792073885   -8.10998186908198   -2.98364880860806
H           5.50093359762291  -10.74840917380805   -6.09858438809190
H           2.43060908047871  -12.69930270215264   -4.13523606946119
