29
         -52.158452289142          0.000492696923
C          -1.12050881409289   -0.04002171379160   -0.25988633883914
C          -0.28529207018734    1.03061538239295   -0.07532997473478
C           0.94981058139262    0.45741865179056    0.27488175375545
N           0.86997837930572   -0.85251247783358    0.30059569869317
N          -0.39021412591831   -1.16132120647438   -0.02495243855010
C          -0.79607673687022   -2.49380269007908   -0.07407519268407
C           0.13316999945661   -3.48828333498879    0.24145868679601
C          -0.22697682213332   -4.81421914284317    0.19960693407359
C          -1.53643899890339   -5.18219964568734   -0.13437437367555
C          -2.46181642410609   -4.17945316904253   -0.45498999812096
C          -2.09587863511788   -2.85344022264051   -0.43225605217805
N          -1.81785934314275   -6.52573160568282   -0.21194790818530
N          -3.04345079486224   -6.86017942204960   -0.12931144596417
C          -3.32421554183328   -8.18383095782352   -0.30367092836961
C          -2.48161563718454   -9.27439544065280   -0.67788164610176
C          -3.26357235164223  -10.38977356475785   -0.73286339041739
C          -4.60822341225275   -8.69377617106865   -0.14432220295648
N          -4.52257990046789  -10.00390740637604   -0.40560822014736
F          -5.58527426517911  -10.86263470722621   -0.35492941747019
H          -2.15450355757504   -0.06769104103231   -0.53330242226848
H          -0.52059956000471    2.07011190043212   -0.17439876525108
H           1.87455154486828    0.94836175185710    0.50413219426326
H           1.13234231390638   -3.18576362588414    0.51052113673562
H           0.48330246630384   -5.58817629372926    0.44476402098103
H          -3.46189129641578   -4.47444998727775   -0.73445856361384
H          -2.82435591031120   -2.10168317818891   -0.69292990242484
H          -1.43230187809025   -9.20875008760628   -0.87920849626483
H          -3.03919105038020  -11.40897968168158   -0.97336984115841
H          -5.52156815856198   -8.21210091205400    0.13530709407823
