36
         -60.836997028658          0.000771873488
C          -1.11098897073434   -0.00519116854289    0.03216570242642
N          -0.29993939313072    1.07661040037991    0.04773001196247
C           0.91777336633747    0.60981875658922    0.01629189979105
N           0.93748627991585   -0.74174365258526   -0.01100053830831
H           1.74932798633274   -1.33424710606982   -0.05543229795895
C          -0.36961743738142   -1.16976763644302   -0.00566689112687
C          -0.76864442757315   -2.55728657544793   -0.03075724350481
C           0.14623133510719   -3.58990015683668    0.20840516365326
C          -0.24591492036964   -4.90725086382343    0.16068948224741
C          -1.57761571558731   -5.24180536800995   -0.10993587415282
C          -2.50050062523450   -4.21025433372382   -0.34173102524302
C          -2.09974753104763   -2.89750847879933   -0.30509959647236
N          -1.87722965705405   -6.57917398220744   -0.21100710990080
N          -3.11239957371038   -6.89620396067487   -0.14884548696870
C          -3.40485312111466   -8.21139039310951   -0.33595553590109
C          -2.55316140343288   -9.32381682169639   -0.63983365863108
C          -3.34943979442265  -10.41695931391560   -0.73152169401266
C          -4.69381407686130   -8.70995321399181   -0.26132547511887
N          -4.65716062179730  -10.04385128067071   -0.50098152118905
C          -5.74829410230099  -10.88753898358063   -0.50909320316724
C          -5.78575912516601  -12.22787180651963   -0.77314700560343
C          -7.08982006585747  -12.75991046517411   -0.68367142058671
C          -8.02104024192687  -11.83075139163366   -0.35676926390384
S          -7.33300983993626  -10.26784049555585   -0.14568512740865
H          -2.17484096229071    0.11430658247230    0.06401924729332
H           1.80505567106361    1.21109031117248    0.01238166914812
H           1.17627487746244   -3.36114835915109    0.44459053545359
H           0.45959833835181   -5.70246870250679    0.34732485404218
H          -3.52221179458480   -4.47849594572426   -0.56440516898441
H          -2.81298513865771   -2.11134159958253   -0.49951754557552
H          -1.49102810955739   -9.27660588714133   -0.76523317680970
H          -3.09584351669222  -11.43640048849782   -0.94096483850905
H          -5.60991457276008   -8.19373597240263   -0.05517566939787
H          -4.92511939607538  -12.81929220226285   -1.02373936050963
H          -7.31840195429221  -13.79572302730936   -0.85780863956829
H          -9.07636176502078  -11.95732641702353   -0.22385419750405
