29
         -52.519490616257          0.000492023497
C          -1.11746724842543    0.00483255626856   -0.28705047268559
C          -0.22029997154972    1.06822607134589   -0.05679837808495
C           0.94113342086013    0.49262343950355    0.36186868912295
O           0.82330676965139   -0.84083752604282    0.40368306286658
C          -0.43481969147126   -1.15321959782687    0.00786337884209
C          -0.83505984361621   -2.54131808332807   -0.03602515991294
C           0.08191689292371   -3.54968901798642    0.28583849611025
C          -0.28377287659515   -4.87341810576231    0.23815127633323
C          -1.59220586580133   -5.23439480342206   -0.10902324631604
C          -2.51266585571787   -4.22534755185570   -0.43267596537882
C          -2.13700793341133   -2.90466781579589   -0.40167051017789
N          -1.87115570204258   -6.57550801615927   -0.19637880042716
N          -3.09592301455119   -6.91989642309478   -0.13296975536872
C          -3.35579093190884   -8.24707918564071   -0.31890703513806
C          -2.48413847080253   -9.32515557677599   -0.66114675261098
C          -3.24589383097892  -10.45305544159938   -0.73938073572709
C          -4.63611196734758   -8.77646697390967   -0.20212436799208
N          -4.52129780783528  -10.08600122535199   -0.45776698425599
F          -5.57223380162735  -10.96150368031271   -0.44244134527477
H          -2.12847853921814    0.08966907365341   -0.62798825485387
H          -0.41246390267137    2.11394861603352   -0.18339279182617
H           1.88532585951077    0.91145319300215    0.64931381883697
H           1.08656116907324   -3.27211890486995    0.56665635093889
H           0.41900993029324   -5.65382138027378    0.48669162863450
H          -3.51187398816550   -4.51739358591723   -0.71946635317012
H          -2.85180507250808   -2.13782440201299   -0.65749523015630
H          -1.42946006839465   -9.24294789405093   -0.82470874803624
H          -2.99689467894013  -11.46939349406344   -0.96747952590696
H          -5.56642297873213   -8.30812426375410    0.04182371161527
