22
         -38.862407459585          0.000942412450
H           1.08124983745580    0.13991592095125    0.02323031701885
C           2.15900168968117    0.13156623197693   -0.04832088472498
C           2.85816856763208    1.32763754260175   -0.11926809058649
C           4.23358789907505    1.32258595938755   -0.22502891182686
C           4.93052411691201    0.11006820811505   -0.23622161887323
C           4.21819676461721   -1.09341113095283   -0.16475124063736
C           2.84237313748908   -1.07562245242125   -0.07644321793743
N           6.29859134511805    0.17784998972410   -0.39867840933742
N           6.96990319758996   -0.83513566585120   -0.02512849207064
C           8.31457738895431   -0.78734886388396   -0.26101965947885
C           9.10309276161101    0.18068268222588   -0.95343755354213
C          10.39664404320530   -0.24791614927188   -0.91432654866724
C           9.17946180220136   -1.78326940192772    0.17748383790187
N          10.40191994530508   -1.41943336600776   -0.23004566252078
F          11.53460311639797   -2.14605869896354    0.01217434927673
H           2.32326747502584    2.26596254265334   -0.09831380526176
H           4.79412956294769    2.24325882117942   -0.27899894694241
H           4.76952824613389   -2.02136229125925   -0.19666993207674
H           2.29412389501376   -2.00552931789365   -0.02803995156244
H           8.72991378926035    1.07094491178261   -1.41591358712543
H          11.30062698523278    0.17078752466380   -1.30722013558295
H           8.99189443314023   -2.67696299682866    0.73463814455770
