31
         -50.931216410625          0.000438003544
C          -1.12358400893122   -0.08478644142245   -0.06136577995584
C          -0.36828592904811    1.10035083706407    0.01553241224388
C           0.96076538769976    0.86580490967551    0.16645586453805
S           1.31690461896749   -0.81194410915309    0.22030092093028
C          -0.36787021806094   -1.22517217027266    0.03312029975438
C          -0.78970578278830   -2.60587192458051   -0.00456955645074
C           0.13053768619834   -3.63946275056144    0.21080919790312
C          -0.25528180978885   -4.95700017128652    0.16639610085768
C          -1.59174357498302   -5.29646373114061   -0.08066176282460
C          -2.51815517079960   -4.26566055346177   -0.29998763391679
C          -2.12312401580709   -2.95075488421689   -0.26446130325023
N          -1.89073752625252   -6.63211310278836   -0.18703301871239
N          -3.11915460658833   -6.96263076138298   -0.07362567782290
C          -3.41459958881001   -8.27269025245491   -0.27637484196169
C          -2.58267521368716   -9.37878609503851   -0.61931794584446
C          -3.39285407206618  -10.47089428376278   -0.70646326494233
C          -4.71420309688828   -8.76900994060305   -0.17979573434076
N          -4.67670870449595  -10.08313299669799   -0.44598849172337
N          -5.75301610147873  -10.96341589907039   -0.37408454471034
H          -2.19216185828475   -0.08598331977012   -0.17650273519585
H          -0.79680809565178    2.08549104182638   -0.03938698691782
H           1.75990832115440    1.57516281026479    0.25003730636580
H           1.16278661280048   -3.38847734598103    0.41092260011034
H           0.45740109303196   -5.74952342099256    0.33526415730442
H          -3.54292698116812   -4.53451369635403   -0.50931153647801
H          -2.85148968864530   -2.17459321799140   -0.44397969537166
H          -1.52399397753102   -9.33986688656086   -0.77253616833586
H          -3.16790872606036  -11.49384941989242   -0.93634649866072
H          -5.62321676522068   -8.25395836901166    0.05880121880829
H          -6.62473333194272  -10.44232526272606   -0.37253111622258
H          -5.73673487487346  -11.60891859165583   -1.15993578517705
