30
         -52.517553238355          0.000894144878
C          -1.09939247082503   -0.03923751572751   -0.25268747566458
C          -0.23723261398802    1.00978644872403   -0.07205465954250
C           0.98330114805812    0.40633181996754    0.28209820962131
N           0.87033965097493   -0.90022791676685    0.31241268373048
N          -0.39816553702638   -1.17849636696989   -0.01113476251961
C          -0.83142362829375   -2.50058111305664   -0.06338440037059
C           0.09912784151110   -3.51588866903079    0.17448764006811
C          -0.28379782983008   -4.83432639762766    0.11841876266758
C          -1.61466392303383   -5.17486222934156   -0.15716347079351
C          -2.54383303800053   -4.15106844307202   -0.39210078967982
C          -2.15717081865309   -2.83169162668202   -0.35061227225386
N          -1.90516444209002   -6.51499460156773   -0.24320830847426
N          -3.13554988186423   -6.84474779386814   -0.20441094051717
C          -3.39412546534869   -8.17726013808919   -0.35701164236673
C          -2.49879951691565   -9.27181262493695   -0.62298425645779
C          -3.24777310090722  -10.39521391544404   -0.69235860297327
C          -4.66486085105705   -8.70381922622241   -0.27733734249403
N          -4.57448981191852  -10.05380343502496   -0.47988810736854
C          -5.58757440817719  -10.90601497571825   -0.47146528798933
N          -6.45885239308358  -11.64915786178190   -0.46487610353389
H          -2.13192823999963   -0.04213067582581   -0.53287136848600
H          -0.44428224914960    2.05463376067996   -0.17678057610631
H           1.91991143664173    0.87427472258741    0.51098090961971
H           1.11630734626941   -3.23411593721423    0.39453945220593
H           0.42661123488762   -5.62554143447109    0.30043517967932
H          -3.56402993175968   -4.42380875873508   -0.61712991827444
H          -2.88885445291538   -2.06160138469922   -0.53955740869249
H          -1.43821591313094   -9.18553489969645   -0.74187052430933
H          -2.97561120857103  -11.41694171186665   -0.87265984152284
H          -5.60340693180402   -8.22121709852137   -0.09111477720162
