36
         -61.650966209784          0.000635779755
C          -1.14193715964854   -0.06511005676581   -0.25801192150431
C          -0.29807496576590    1.00100714713888   -0.08294504636784
C           0.93169373633491    0.42125866418476    0.27314234008970
N           0.84079210721538   -0.88806049677277    0.31064202531755
N          -0.42127530314584   -1.18931115332839   -0.01234864896664
C          -0.83594478595563   -2.52022339233262   -0.05473465783808
C           0.08574693686788   -3.51761334297655    0.27276257399807
C          -0.27918167420145   -4.84176928226641    0.23011936919940
C          -1.58619779353952   -5.20706037069702   -0.11777130928640
C          -2.50555778844033   -4.20061669980333   -0.44473022602329
C          -2.13443481096708   -2.87566346263715   -0.42024239220550
N          -1.86156075675598   -6.54879225477845   -0.21639397582666
N          -3.08429554569356   -6.90175538884858   -0.14463196555351
C          -3.34052740757667   -8.22218336284593   -0.35567941986385
C          -2.46093858526502   -9.29001525530801   -0.73220117216942
C          -3.21921231669961  -10.40879431556787   -0.83578230841527
C          -4.60797604830063   -8.76888863147884   -0.25038098680709
N          -4.52791500756152  -10.09168498751229   -0.54111422932043
C          -5.58484779720884  -10.97739451174385   -0.54917710052667
C          -5.64292268207750  -12.31464664316064   -0.83511505836855
C          -7.00250902815165  -12.67857719592537   -0.67737785795600
C          -7.66006892061825  -11.54789275718475   -0.31167219546689
O          -6.80620013361373  -10.50655201575566   -0.23089290467481
H          -2.17610007155967   -0.08714250209729   -0.53139473144922
H          -0.52507625005832    2.04136836828492   -0.19204092234546
H           1.86066217321545    0.90616569482049    0.49809240429938
H           1.08405502419905   -3.21889395847295    0.54927478747932
H           0.42631712297370   -5.61796598362883    0.48197317332801
H          -3.50472648803181   -4.49160901913484   -0.73182484141208
H          -2.85824986535258   -2.12118778655867   -0.68672697809776
H          -1.40731964663254   -9.19591988567837   -0.89664484755310
H          -2.94418291224944  -11.41101448520603   -1.09535611597570
H          -5.53591468191553   -8.30343147618794    0.01199071876886
H          -4.83558921498850  -12.95588575718979   -1.11915031021331
H          -7.42329061178348  -13.65210885574451   -0.81966788775494
H          -8.68853884704726  -11.35079458683956   -0.08756738053754
