29
         -47.527312915093          0.000712532285
H           0.97712320548763    0.16098214218779    0.04199864147159
C           2.05049584413433    0.14200767496216   -0.07850863553905
C           2.82312192087444    1.17849822554479    0.42516332607069
C           4.19304262543767    1.16658815744471    0.26298146931687
C           4.81171339971843    0.09521595387148   -0.38965508638280
C           4.02492377290535   -0.94690239762285   -0.89683597470792
C           2.65510978812073   -0.91526145301709   -0.74298591892965
N           6.17652987082768    0.17223222550830   -0.56801226364131
N           6.78526644616267   -0.92639872827831   -0.77888079358392
C           8.11919228758462   -0.84288655227359   -1.03556160890665
C           8.97633828726781    0.29485693681011   -1.19450322253688
C          10.22032049244457   -0.18085371349663   -1.44901992086649
C           8.91350391759068   -1.96268322377883   -1.20824585671660
N          10.18429653216909   -1.55986625770492   -1.45601197943542
C          11.26119865893653   -2.39314463167227   -1.67637364263444
C          12.56028069660709   -2.05536257106693   -1.93259985624624
C          13.38903811705310   -3.18518062371064   -2.10376896880740
C          12.72052146066991   -4.35771131312619   -1.97764378888724
S          11.04917408801059   -4.12016847436188   -1.64414181208102
H           2.34916573397633    2.00130822439681    0.94084811757605
H           4.80956513169391    1.96343615290680    0.65030201813701
H           4.51675846836573   -1.75563032353854   -1.41668867931737
H           2.04998971139831   -1.71763898767487   -1.14083752682359
H           8.67042176980690    1.31864377346347   -1.12422889032935
H          11.13493085834573    0.34780706819910   -1.62714457069852
H           8.64376155987036   -2.99890557510183   -1.16279621817268
H          12.92042541359583   -1.04567818022319   -1.99836920210880
H          14.44149538832838   -3.11941117038403   -2.31254412216592
H          13.09831455261570   -5.35693235826297   -2.05840503305301
