31
         -51.411118961187          0.000882579617
C          -1.14100557820390   -0.02628693734474   -0.01681176417913
N          -0.34003336843051    1.06387147916065    0.00115746265331
C           0.88166988531797    0.60802160797498   -0.00385015916318
N           0.91365422456569   -0.74363218078156   -0.01641230858814
H           1.73224423337015   -1.32771680313266   -0.03875095448761
C          -0.38919769477633   -1.18394679639441   -0.02861195113052
C          -0.77483303131914   -2.57611912402314   -0.04412484473004
C           0.15153327646530   -3.59870340387947    0.19209191898038
C          -0.22844464404761   -4.91997847202549    0.15745323145891
C          -1.55934737390573   -5.27094372376163   -0.09557167517601
C          -2.49245746584275   -4.24907001100074   -0.32788194348033
C          -2.10408319372456   -2.93202700887522   -0.30492277060708
N          -1.84663044485170   -6.61128860554561   -0.18896147693268
N          -3.07356383064688   -6.94773670777071   -0.07448503785789
C          -3.35963427787534   -8.26285554923317   -0.25908428057386
C          -2.52034406827169   -9.36568513043215   -0.59340817482745
C          -3.32235096542587  -10.46495354652848   -0.66532375772831
C          -4.65469788195657   -8.76832161602588   -0.15028499797589
N          -4.60777446208710  -10.08478570275279   -0.40211472828233
N          -5.67713941077961  -10.97161921474208   -0.31265032340110
H          -2.20612037552693    0.08433931426098   -0.00663106781986
H           1.76377545795993    1.21691972352354    0.00240450175604
H           1.18237226644782   -3.35972260193848    0.41405400030797
H           0.48682077268792   -5.70691192611429    0.34199000858520
H          -3.51401269428415   -4.52774788250142   -0.53867343562209
H          -2.82743248128501   -2.15471143407638   -0.49738207562864
H          -1.46300200595446   -9.31923546679686   -0.75308769978511
H          -3.09022745903550  -11.48842165712377   -0.88579733072449
H          -5.56611721959257   -8.25739637401183    0.08718848208327
H          -6.55460535086571  -10.46161155705577   -0.35468505817074
H          -5.63557483812531  -11.65346269105148   -1.06574178895234
