27
         -41.307486895570          0.000594132034
N           1.20911583737172   -0.03081884067065    0.30308432278453
C           2.56878169266060   -0.04171154265354    0.08964452571116
C           3.39333141377656    0.90499046097794    0.70550141627367
C           4.75637585604983    0.86285930215827    0.53331703613201
C           5.34766157603381   -0.14080540950210   -0.24367923635272
C           4.51888632071533   -1.09257602648558   -0.85706855107801
C           3.15594126175128   -1.03707260651143   -0.69922421807577
N           6.71269963961411   -0.08222955475669   -0.39647384704240
N           7.27817064688220   -1.11848252378894   -0.88783678426937
C           8.62199630641802   -1.02394031631053   -1.09837899519438
C           9.50828520821166    0.09014393320112   -0.99062644972329
C          10.74577819394149   -0.36065740997569   -1.33130865918357
C           9.39425456272457   -2.10220691675832   -1.50699211766736
N          10.67164165677709   -1.69186996672182   -1.63782032064713
C          11.78700689051103   -2.50299226358551   -2.03266105546229
H           0.80729228700012    0.82684354772955    0.64398540922672
H           0.64048791766160   -0.54345734855300   -0.35009687162560
H           2.94388185204740    1.67582720265762    1.31618422677829
H           5.39533900575391    1.59435663079972    1.00389749212451
H           4.97868654092589   -1.85467655602740   -1.46815862640878
H           2.51970886936139   -1.76438143043750   -1.18544417719244
H           9.22958219296041    1.08318694670340   -0.70304811889235
H          11.68392335210611    0.15805989949481   -1.38332157082055
H           9.09771856502259   -3.11583230251798   -1.68997235881938
H          11.45875128424931   -3.53218521605275   -2.16602383717212
H          12.56758779973504   -2.47704644310830   -1.26856547994287
H          12.21225326973685   -2.14321524930467   -2.97316315346056
