30
         -52.878734222772          0.000464714345
C          -1.10544491045739   -0.00064080481305   -0.27446490596828
C          -0.18764507960720    1.04935371061142   -0.06738147960473
C           0.97684302059925    0.45630416506703    0.31856291476228
O           0.84151057412805   -0.87470122620095    0.36234476860096
C          -0.43150971457970   -1.16886872300816    0.00173928596287
C          -0.84997514745429   -2.55099542745672   -0.03735233717827
C           0.06746728010559   -3.57154211103361    0.24311828630554
C          -0.31306973380545   -4.89071725480126    0.19182699608768
C          -1.63528384996362   -5.23448366728500   -0.12017002118020
C          -2.55781238396724   -4.21284547284550   -0.39765941961107
C          -2.16830082535834   -2.89670412475781   -0.36127561173615
N          -1.92246604120864   -6.57324886795148   -0.20646785032918
N          -3.15252816123551   -6.90789476745156   -0.18693618454879
C          -3.40406442621286   -8.23944104766730   -0.35813867647416
C          -2.50183499961630   -9.32547288880527   -0.63335156295173
C          -3.24463038091017  -10.45124587031418   -0.72686732851390
C          -4.67263663529287   -8.77271392948086   -0.29900633607742
N          -4.57445023938176  -10.11940713938417   -0.52183806736516
C          -5.58377028284178  -10.97543791264528   -0.53800911051474
N          -6.45327471615504  -11.72043347917066   -0.55696878717833
H          -2.12379627463901    0.09916049943361   -0.58833848823337
H          -0.36772174227281    2.09778354938235   -0.18859590642842
H           1.93452343214240    0.86133720825549    0.58009913184205
H           1.08356521042106   -3.30679490225776    0.49303247349880
H           0.38935907734842   -5.68123578801780    0.40681962962644
H          -3.56925199095219   -4.49130958160325   -0.65294348773557
H          -2.88324227051728   -2.11931483041358   -0.58194317545405
H          -1.44074776883360   -9.23244544788344   -0.74099094406486
H          -2.96599980177300  -11.46876515301471   -0.92057447501258
H          -5.61492121770866   -8.29768871448630   -0.11397933052578
