29
         -45.103292766131          0.000392278294
C           1.38351433799921    0.05921757978282   -0.66688473158595
O           2.46832549451843   -0.07874702438462    0.21675186626081
C           3.00891864295054    1.04206862871921    0.76920679332354
C           2.55845011833517    2.34074142915232    0.54552908004215
C           3.19632582373812    3.40528452981924    1.14992422341307
C           4.28350412510759    3.20275183164358    2.00191449175549
C           4.72811032358286    1.89011618284056    2.22581300867879
C           4.10319693611710    0.83204040888319    1.61591766704818
N           4.88496220572978    4.32758822374581    2.52460029078002
N           5.72130834636433    4.13069255355571    3.46959948145406
C           6.36882742024325    5.22917121944203    3.94594652062753
C           6.33497119722437    6.59518736790675    3.52982240741049
C           7.19292044036916    7.27096842308377    4.34039245576712
C           7.26423058223213    5.16371562869745    5.00599712217578
N           7.75083160450825    6.39782002222458    5.23483477175824
C           8.70921469482284    6.75824880273785    6.23977401568441
H           1.13830378414787   -0.95060153254418   -0.99262916319999
H           1.64936386304557    0.66556640982357   -1.53879711134786
H           0.51295428478873    0.49960407431373   -0.17012279948204
H           1.71533239253000    2.53175749519170   -0.10032420441954
H           2.85331311492292    4.41437998817271    0.98017576592282
H           5.57592153783634    1.73874864596677    2.87644148150734
H           4.43824303094039   -0.18213633425659    1.77070036376289
H           5.74382863068535    6.98883534807329    2.72864488364834
H           7.45754748152576    8.31083925353548    4.35783707977311
H           7.55894844017875    4.31437886114582    5.58941027474967
H           8.95534411869030    5.88273796135361    6.83772138128004
H           8.30341409304248    7.53200068786070    6.89536918863164
H           9.62401293382244    7.14001333351294    5.77940339457894
