31
         -50.966665476854          0.000247138007
N           1.20091781570804    0.06142169984931    0.15533730896320
C           2.55787143383230    0.03728518013374   -0.05070118158041
C           3.35800538234485    1.11165934860620    0.35351261313205
C           4.72190503446224    1.06535087872987    0.19459761907776
C           5.33918243441889   -0.06424242549472   -0.35847591846554
C           4.53489578607882   -1.14277330079627   -0.76073573588170
C           3.17143323158348   -1.08795136715208   -0.61530873367456
N           6.70300254341107   -0.00941979648084   -0.50490939812947
N           7.28977582376672   -1.09962527558049   -0.82829042046106
C           8.63627705364580   -1.01169923576540   -1.02206198021019
C           9.49933878709921    0.13254793023782   -1.04589634410462
C          10.75205251783299   -0.32038448791560   -1.29800276039782
C           9.43520059099417   -2.11246378751800   -1.26607446445545
N          10.71781671059040   -1.69244830566885   -1.42906110599122
C          11.80413847185659   -2.50359954139559   -1.67311678222765
C          13.10014123532594   -2.14082584811899   -1.91175778041717
C          13.94587005675015   -3.25296636964979   -2.11143044090030
C          13.29417574048503   -4.43809397476418   -2.02455100686813
S          11.61688787147517   -4.23357909727581   -1.69322350031403
H           0.77375382667250    0.95524626171699    0.33049550759278
H           0.64117417398513   -0.59877231399009   -0.35736847995745
H           2.88795854729613    1.98168458866589    0.79047209488907
H           5.34266708633293    1.89263130324657    0.50241230569730
H           5.01545431018709   -2.00446409356453   -1.19865062143768
H           2.55391608695750   -1.91582556846087   -0.93639781820998
H           9.18959860496564    1.14639449113941   -0.89568334784397
H          11.67242374262343    0.21984236395012   -1.39235575727047
H           9.16815881241211   -3.14877921967705   -1.32119418627331
H          13.44497227667316   -1.12445114536940   -1.94927113312321
H          14.99834264635330   -3.16583731760003   -2.31264966379802
H          13.68665136387863   -5.42880157403708   -2.13379888735934
