26
         -46.097291721290          0.000473025669
C           1.44258671820613    0.50096737785797    0.82274231519995
O           2.34891601048196    0.11393677476219   -0.18176172231154
C           2.82009716684088    1.05582454274602   -1.03815087295373
C           2.47653981496600    2.40629793629269   -1.00969109727697
C           3.01219076160560    3.27262379932761   -1.94008331168134
C           3.91200272040796    2.82137616039664   -2.90854513354197
C           4.25564640405061    1.45967535505787   -2.92917211195281
C           3.71432700585600    0.59515698278659   -2.01293527013364
N           4.36782478936466    3.75565608442906   -3.81061802715334
N           5.32362926136048    3.39030754739019   -4.57298796408106
C           5.73090142491069    4.30748604396628   -5.49908184827002
C           5.21403233966520    5.60032503968916   -5.81466365657427
C           5.96732039530038    6.10111526221986   -6.83486853470332
C           6.79799566537158    4.07285052618282   -6.35782872558826
N           6.90212993508004    5.16364974926889   -7.12901031132970
F           7.84339521360312    5.31763218482354   -8.11084523947937
H           1.21099405927326   -0.40752378212301    1.37631479487164
H           0.52082437568615    0.90923074816181    0.39641690577348
H           1.88585681669113    1.23517737344257    1.50270138385238
H           1.79100249791063    2.78817531942991   -0.26906399775922
H           2.75152578356820    4.31969541020941   -1.92512272218515
H           4.94296273250461    1.11435167790750   -3.68611236302271
H           3.96056410828622   -0.45535634628462   -2.01908691276730
H           4.38380397169844    6.07142728858487   -5.33058026466957
H           5.92089553411652    7.02744065712576   -7.37016712521220
H           7.45379449319334    3.23249028634527   -6.44632818704973
