30
         -52.051421104635          0.000292991096
C          -1.11624088465496   -0.08584420475868   -0.00995237109398
C          -0.34972696061182    1.09012544958879    0.07868436806143
C           0.98278243023299    0.84046724037406    0.17778119347202
S           1.32818642887230   -0.83823390736761    0.16932057570472
C          -0.36474690269333   -1.23373547077900    0.02382106895916
C          -0.79862485825437   -2.60875514282512   -0.04129324323575
C           0.11941915030959   -3.65401427217654    0.12478783266060
C          -0.27869762653865   -4.96648923666878    0.05465379196479
C          -1.62454638426958   -5.28672309968946   -0.16838227077857
C          -2.54989421783761   -4.24479000645209   -0.33799024694049
C          -2.14198397423785   -2.93531788574841   -0.27925844558459
N          -1.93165372361373   -6.61941544780658   -0.27574871107104
N          -3.16488159212181   -6.93918286247120   -0.21394012178215
C          -3.43668806743050   -8.26517520455172   -0.39571322500800
C          -2.54989561115866   -9.36077381192185   -0.68371140754066
C          -3.30743117409328  -10.47636220979298   -0.77964578457995
C          -4.71155563119182   -8.78289475985065   -0.33095831613162
N          -4.63185904552704  -10.12894267364509   -0.56490385037823
C          -5.65204114141537  -10.97186187144081   -0.58621824592568
N          -6.52951313062771  -11.70739970776780   -0.60585407289032
H          -2.18814011372966   -0.07649702489969   -0.08747777391949
H          -0.77145771901501    2.07939114422260    0.06986050318636
H           1.78928488381847    1.54215606295843    0.25683194189086
H           1.15768277804831   -3.41597615945224    0.30703210899349
H           0.42964857068581   -5.76995516325205    0.18490516020696
H          -3.58119135378905   -4.50056688323080   -0.52992414158817
H          -2.86601539878292   -2.14840015405540   -0.42387332870315
H          -1.48830052722457   -9.27993109473032   -0.79616359846526
H          -3.04277597990361  -11.49608975869573   -0.98111893642223
H          -5.64724222324416   -8.29748188311313   -0.13895045306080
