36
         -60.357172533129          0.000887939667
C          -1.10587509554336   -0.06190215918854   -0.02743246200938
C          -0.34888293392778    1.12049227452509    0.06419026775197
C           0.98042664799746    0.88115977952875    0.20621843385424
S           1.33454263072760   -0.79669219957293    0.23572858952895
C          -0.35107970717953   -1.20458452262906    0.04729704237819
C          -0.77500188255721   -2.58366847791809   -0.01040388111367
C           0.14459888777641   -3.62127963377358    0.18819936381159
C          -0.24357853423057   -4.93718140589361    0.12390948908290
C          -1.58104107868825   -5.26997903317084   -0.12714865276967
C          -2.50725004082440   -4.23534137030518   -0.32924814204516
C          -2.10973798000721   -2.92220163040000   -0.27442826371964
N          -1.88040613994523   -6.60490151437694   -0.24248438292419
N          -3.11343161869777   -6.92911641537639   -0.17256315390290
C          -3.39872013679982   -8.24375629471491   -0.37622872026876
C          -2.53918738352712   -9.34844195641513   -0.68601373399094
C          -3.32898758039385  -10.44431727819715   -0.79633186192166
C          -4.68573822108429   -8.74946433010381   -0.31681332308025
N          -4.64094221674366  -10.08045509860076   -0.57292165825123
C          -5.72684049371593  -10.92987931931184   -0.60665054526827
C          -5.75225853952281  -12.26642611461965   -0.89088456400996
C          -7.05417635865419  -12.80762908946072   -0.82917100014347
C          -7.99587849484461  -11.88896177151295   -0.50283818978308
S          -7.32068448777306  -10.32517958288092   -0.25823916619346
H          -2.17519858530004   -0.05994659266014   -0.13888198100445
H          -0.77601381066764    2.10698324772946    0.02579119940908
H           1.78073506218387    1.58800925682920    0.29696273348745
H           1.17717815211977   -3.37473101330981    0.39101619763594
H           0.46728362066054   -5.73400110246499    0.27919259506228
H          -3.53219811361475   -4.50031037240996   -0.54168916648578
H          -2.83639094633253   -2.14209280608554   -0.44216435761749
H          -1.47610775955075   -9.29497113057723   -0.80113569981688
H          -3.06798784331374  -11.45995298398424   -1.01462581844611
H          -5.60661320502226   -8.24054181628629   -0.11350160755140
H          -4.88408512917263  -12.84857652499726   -1.13707610548777
H          -7.27339884736436  -13.84208414440892   -1.02227801483997
H          -9.05235183646640  -12.02393687300549   -0.38808145935693
