33
         -55.589279288448          0.000811965800
C           2.62675064370972    0.77061418565479    1.38910881633689
O           2.57799686666997    0.30284903807594    0.06305055092253
C           3.02963708030645    1.11109088004524   -0.93242574206857
C           3.52849462640995    2.39917331212831   -0.74968446158813
C           3.95298183214522    3.13362877164333   -1.83810296532206
C           3.90832956867443    2.59961402817615   -3.12768141870018
C           3.40641812402426    1.29976563814352   -3.30343652628219
C           2.97073073351625    0.57376186714655   -2.22447270481637
N           4.32987673460953    3.42112322244060   -4.14909216001166
N           4.47686473828733    2.87420732453344   -5.29412045408720
C           4.84291849447125    3.70437622362166   -6.31033979855812
C           5.04390368908071    5.12391735919960   -6.32916937887078
C           5.37969490818686    5.46006184419445   -7.59913901026177
C           5.07543210798519    3.25334646586680   -7.59715760504722
N           5.40021946799415    4.31972648164274   -8.37330522983702
C           5.69391958831141    4.27159313913505   -9.71922624424901
C           5.96360975054750    5.26341950776230  -10.62313779225315
C           6.18512986442578    4.60384028742721  -11.85699074575332
C           6.03471101556323    3.27655316845734  -11.61254052916194
O           5.73528429950088    3.06333608687937  -10.31416895538339
H           2.23513947335251   -0.03910377731274    2.00300197089313
H           2.00387845986963    1.66058660779779    1.52595545625705
H           3.65321281751923    0.99370621955524    1.69775809353588
H           3.58544085173728    2.83673332234834    0.23505329886002
H           4.34024971202277    4.13239412869282   -1.70646007260471
H           3.36450687986077    0.89544846594782   -4.30321954565552
H           2.57488119431843   -0.42340406557760   -2.34214500205261
H           4.94024241122675    5.77559810413629   -5.48607369587227
H           5.60879160854880    6.41612835785040   -8.02519712652295
H           5.03177366086334    2.26005929029305   -7.99478232421526
H           5.99799310969543    6.31704049549962  -10.44259856211625
H           6.42204409806787    5.06488083478458  -12.79331688260895
H           6.10894158849798    2.41293318380960  -12.24168325290507
