25
         -37.869110461520          0.000917036025
H           1.15380607588570    0.01474289835076    0.30946157578688
C           2.22511460963175   -0.01403506037067    0.17435726188386
C           3.03310542194031    0.89743007270427    0.83821708782974
C           4.40042313060410    0.87415339867740    0.65870704589527
C           4.98227111165902   -0.08533458096103   -0.17581667665214
C           4.16014338536051   -1.00136396999047   -0.84313127720317
C           2.79306258531017   -0.95780241380958   -0.66851654953571
N           6.34716125221218   -0.01293514635213   -0.36227769761614
N           6.93051893923981   -1.07958100775780   -0.73971259688406
C           8.26375974013469   -0.98741058548332   -1.00049578057944
C           9.14721663917210    0.13455708471980   -0.99601095053596
C          10.37711744743082   -0.33812285958687   -1.33240969275883
C           9.03169761150866   -2.09218063430226   -1.34808018813205
N          10.29978585001872   -1.68869131066351   -1.54288185992083
C          11.40858520969626   -2.52262400346965   -1.90949256195062
H           2.58900698101605    1.63287824704490    1.49354679190759
H           5.04314448260235    1.57522603565774    1.16905563239023
H           4.62154299343119   -1.72363204881076   -1.50033080713036
H           2.16125536204472   -1.66332959095173   -1.18952917761107
H           8.87319195655212    1.14459211591884   -0.77030010446269
H          11.31228841571604    0.17647020995892   -1.44128617932292
H           8.73150457376063   -3.11531475303435   -1.45506742954893
H          11.07264324943927   -3.55358871486212   -2.00278708703527
H          12.19199543007498   -2.47331162067175   -1.14962708573342
H          11.83195754555780   -2.20061176195462   -2.86377169307991
