29
         -52.171991411280          0.000725313184
C          -1.11739667471146   -0.00703815689519    0.04184699981010
N          -0.30654776953797    1.07434432945406    0.05638409519187
C           0.91092686001475    0.60842201668998    0.00114162750920
N           0.93091441230876   -0.74249732931973   -0.03995200637191
H           1.74234928705154   -1.33371279026592   -0.10630762048305
C          -0.37600660727068   -1.17084004158037   -0.01985093168694
C          -0.77481343672867   -2.55800490084690   -0.05071949816773
C           0.14032024559247   -3.59041288815101    0.18863048218006
C          -0.25136983374518   -4.90760533787427    0.13761324612780
C          -1.58288472713227   -5.24172326880488   -0.13508720797951
C          -2.50577415934675   -4.21074504919098   -0.36838221519227
C          -2.10511221106969   -2.89792744078371   -0.32984446597400
N          -1.88028087872917   -6.57981055323958   -0.23063712702467
N          -3.11093221537964   -6.90398763324570   -0.16078731458097
C          -3.39044440888772   -8.22793782449257   -0.33707788391633
C          -2.53119369133157   -9.32306510329604   -0.65617192084177
C          -3.30830068035836  -10.44071485450007   -0.72630092861917
C          -4.67938023248258   -8.73745494218888   -0.22569348819310
N          -4.58104035692383  -10.05157993143753   -0.46275413607932
F          -5.64337123291202  -10.91246701582222   -0.44482375018908
H          -2.18056870219142    0.11117175797282    0.09323741115089
H           1.79754186718700    1.21044976763577   -0.01066312645015
H           1.16920235799358   -3.36122441399778    0.42876074794737
H           0.45331859440318   -5.70312836021365    0.32539524077594
H          -3.52678338121722   -4.47833904864121   -0.59502197339573
H          -2.81740901525229   -2.11154201831152   -0.52623835333592
H          -1.47394679301071   -9.25870851629337   -0.81020298271731
H          -3.07182714129764  -11.46365416974686   -0.93728972067260
H          -5.60501947503435   -8.25212628261269    0.00207680117829
