22
         -34.696708969453          0.000792366939
H           1.09796995121585   -0.03376174012504    0.13650903028539
C           2.17538913604950   -0.03571987341953    0.05990059392321
C           2.86863448599396    1.16425409912337   -0.00332523623968
C           4.24346772585289    1.16776835915171   -0.11493652172344
C           4.94757931630867   -0.04020288841231   -0.13953803120583
C           4.24126605524610   -1.24742236968573   -0.07687740122932
C           2.86550961017972   -1.23812577165188    0.01740434514768
N           6.31388413932076    0.03215375584713   -0.31569299996623
N           6.99662397099520   -0.96607087218084    0.07783295457848
C           8.33673380323345   -0.92334024021832   -0.17116049403792
C           9.12521378192515    0.03382800671871   -0.88195080691775
C          10.41103517334975   -0.40493639115119   -0.83632546577757
C           9.20823417061515   -1.90766092479910    0.27237913416868
N          10.44987401409916   -1.57865965953474   -0.13506147043011
H          11.28307139860203   -2.11325864937284    0.04881845174746
H           2.32910798572093    2.09987976977343    0.02825335655426
H           4.79817562466017    2.09233507069909   -0.16361144359660
H           4.79741958183203   -2.17219003020968   -0.11870337420919
H           2.32272916441732   -2.17186887137116    0.05982261755232
H           8.75175489634947    0.91888600964512   -1.35418998113875
H          11.30576426850257    0.02131986889654   -1.24623353661771
H           9.00204174553017   -2.79043665772278    0.84294627913263
