26
         -41.930878075774          0.000546706334
C           1.41460322585923   -0.11083717379698    0.72271096646010
O           2.30848423664990    0.07402721828751   -0.34752073771401
C           2.81289295727260   -1.02361438739568   -0.97441588266336
C           3.70001794322762   -0.76791237277401   -2.02566386452039
C           4.25571245242521   -1.80169613600939   -2.73861193431995
C           3.96201899315434   -3.13080792349541   -2.40666367166570
C           3.07684881194872   -3.37971145358024   -1.35207811141521
C           2.50208879710922   -2.34244267824093   -0.64894516107945
N           4.51138422243629   -4.11375005447446   -3.19890589154343
N           4.50887012490499   -5.29745603596260   -2.72421761613165
C           4.97873732629173   -6.27750711371423   -3.54905443880985
C           5.39213725816030   -6.22440774238949   -4.91598313419242
C           5.75388538925076   -7.48699138728988   -5.26730949946010
C           5.11677102771799   -7.59603657423064   -3.14183793916380
N           5.58622610147291   -8.30815688893314   -4.18682568440301
H           5.78509842765312   -9.29507075079248   -4.17460079709443
H           1.15675177044057    0.88929736049478    1.06798520084243
H           1.87866011118049   -0.66768376550696    1.54305320293432
H           0.50423464069952   -0.62765098832435    0.40162597871666
H           3.92605505140721    0.26029351208620   -2.26132677441228
H           4.93886187359967   -1.60906719883891   -3.55121312873061
H           2.84055833499977   -4.40567430290247   -1.11235731561609
H           1.81177886249563   -2.56845480254423    0.14937673763638
H           5.40006553788597   -5.34516655146202   -5.52649216260362
H           6.11703229818632   -7.87189182839166   -6.20024008419691
H           4.91556422356950   -8.03756997981857   -2.18682825685416
