29
         -48.353733706548          0.000428557925
C          -1.11672124662734    0.00614295253281   -0.28682677235426
C          -0.22410144486368    1.07304676187723   -0.05154810046043
C           0.93977257270730    0.50123325007670    0.36414546743421
O           0.82782392872987   -0.83374486469530    0.39941770576963
C          -0.42919609255765   -1.14979693039358    0.00325188298342
C          -0.82397503628016   -2.53986619806000   -0.04489637998987
C           0.09109239077964   -3.54433620818518    0.29381695492410
C          -0.26963158876771   -4.86957149649627    0.24754102306223
C          -1.57195076555508   -5.23666068339973   -0.11521698360473
C          -2.48860801705244   -4.23169319590097   -0.46066517585891
C          -2.11787193051386   -2.90925299154432   -0.43024318907471
N          -1.84982530391967   -6.57776651581725   -0.20666668135423
N          -3.07041753763837   -6.92835667522081   -0.11035753198135
C          -3.33900035209854   -8.25007196924171   -0.30581170861267
C          -2.48075527079447   -9.33122594770508   -0.67851603354963
C          -3.25745708748607  -10.44473634223111   -0.74560244753801
C          -4.61297221083816   -8.78232224363152   -0.16673936508025
N          -4.54452821990018  -10.10165766569133   -0.43380514296359
H          -5.32227096234448  -10.74072990586324   -0.40836007060054
H          -2.12867155329449    0.08872438951832   -0.62568051997538
H          -0.42121410144647    2.11849228417458   -0.17389253252312
H           1.88274022231767    0.92228415651489    0.65262237730100
H           1.09076806450209   -3.26217197785414    0.58797778050302
H           0.43244525919800   -5.64597230138680    0.51080429124054
H          -3.48239836325921   -4.52868522335177   -0.76153128674529
H          -2.83105137262956   -2.14602034733919   -0.70165155586201
H          -1.42948040594185   -9.25210679086439   -0.86433155549006
H          -3.00099938401993  -11.45694968158467   -0.99063938748054
H          -5.52770419040520   -8.29470763823622    0.10361493788146
