23
         -39.221461067693          0.000600053949
H           1.19975381038956    0.08992370183869    0.31089325340438
C           2.27010491852107    0.04402256419188    0.17507083478244
C           3.08929813188123    0.96538659127449    0.81152070979337
C           4.45607117007783    0.92022624602047    0.63036699802502
C           5.02159874570160   -0.07180897365248   -0.17780939365625
C           4.18856518305931   -0.99892487208745   -0.81732762845341
C           2.82289301410445   -0.93235880359998   -0.64162983636734
N           6.38777267393777   -0.02584183666297   -0.35364439314495
N           6.94868785083322   -1.09012094399222   -0.76466432920627
C           8.29076654433132   -1.00464256769588   -1.00655972818445
C           9.16836514627120    0.13457006741979   -0.99299558883194
C          10.40456069011409   -0.30743234729642   -1.31727757296640
C           9.05387733635317   -2.09997397517679   -1.34591485597733
N          10.34091447288925   -1.67518761151068   -1.53101447636948
C          11.36856294983831   -2.44341403301812   -1.85756781306444
N          12.26143391297375   -3.10276415043762   -2.13863421804787
H           2.65491404881932    1.72450221047285    1.44542082899895
H           5.10946122985631    1.62697807627380    1.11845542673480
H           4.64036724706012   -1.74453888252502   -1.45441123745595
H           2.18052818091396   -1.64334374189520   -1.14093599667301
H           8.87225662640550    1.13883496711995   -0.76900654429888
H          11.33713242938125    0.21219442271854   -1.42099226134115
H           8.77592368628631   -3.12892610777964   -1.45566217769981
