24
         -38.101371036106          0.000777269424
H           1.05544908278343    0.11832271389401    0.21741966325816
C           2.12584686498072    0.08881082222678    0.07416096826552
C           2.93226060970649    1.04792716919445    0.66971169678148
C           4.29814748991778    1.02404178920382    0.47924502634279
C           4.88103457898837    0.01675173536426   -0.29710698458084
C           4.05977056374329   -0.94740028235248   -0.89561064744817
C           2.69398893450658   -0.90342090988985   -0.71119037784319
N           6.24091400215057    0.08990026955905   -0.50698369727911
N           6.83276665847025   -0.99406496031994   -0.82076454469935
C           8.15565208421276   -0.90094190744036   -1.11993949657852
C           9.01515815108647    0.23116880399657   -1.22521011386978
C          10.25033049301732   -0.24032703383506   -1.55732734188144
C           8.93752233802981   -2.02069986756375   -1.39980761626442
N          10.18641479127986   -1.60107913204814   -1.65179377851455
N          11.24653662863499   -2.41079431240194   -2.05361755486076
H           2.48728860407699    1.82101508065746    1.27987770629443
H           4.93951185432640    1.76229624017409    0.93631873164633
H           4.52258674770835   -1.70566729341301   -1.50981319090666
H           2.06329372653838   -1.64560346160173   -1.18030764578621
H           8.72722408647348    1.25044836198430   -1.06942779017934
H          11.17252484982645    0.27837271918437   -1.73438226960431
H           8.66234703187784   -3.05602435651019   -1.42291501655988
H          11.12110539373545   -3.35293404706830   -1.69319092428628
H          12.12581443392799   -2.02525814099440   -1.71951480144591
