36
         -61.184401771874          0.000516735267
C          -1.12016647745509    0.00522135503682   -0.27915653742548
C          -0.23292137187993    1.07680605902588   -0.04618998111833
C           0.93437195172819    0.51118035354547    0.36917878692771
O           0.82895878461554   -0.82393636403012    0.40776777643223
C          -0.42669905909827   -1.14692507574412    0.01302588085536
C          -0.81620430054204   -2.53817935867388   -0.03247740841794
C           0.10099576484311   -3.53971321191403    0.30952489407980
C          -0.25606297762811   -4.86614426579405    0.26401135451193
C          -1.55616235635428   -5.23682588047330   -0.10322955586583
C          -2.47553784558293   -4.23434311053008   -0.45042522591507
C          -2.10889565346855   -2.91128583951201   -0.41954150255702
N          -1.83154274959632   -6.57853344532258   -0.19180153162183
N          -3.05965085262289   -6.91876987063231   -0.14149934719890
C          -3.33471573655505   -8.23595654237455   -0.33902344152331
C          -2.47854195347027   -9.33262093285102   -0.68468741329109
C          -3.26564077675094  -10.43208773774276   -0.78310788094394
C          -4.61647314225486   -8.74996240367577   -0.24711679336835
N          -4.57196202426459  -10.07844719862777   -0.51533237772673
C          -5.65501836766263  -10.93227850423814   -0.52406954012067
C          -5.68110715927278  -12.27026148263198   -0.80109985465773
C          -6.98003285086028  -12.81539475235322   -0.71291023194503
C          -7.91867561709790  -11.89808500134148   -0.37370386453083
S          -7.24435402728772  -10.33088882278731   -0.14938463975980
H          -2.13275883889013    0.08227910550867   -0.61743384935025
H          -0.43528908064802    2.12099845726240   -0.17024795297167
H           1.87537903503609    0.93778743307363    0.65589627060099
H           1.09926305560435   -3.25446820586168    0.60550748841302
H           0.44763022015885   -5.64017169896215    0.52992919296017
H          -3.46773560721046   -4.53456016914733   -0.75296388951381
H          -2.82352307976307   -2.15025467318745   -0.69304472272760
H          -1.41999303631747   -9.27193500800631   -0.83420952687353
H          -3.00617300287019  -11.44342260641885   -1.02289357521961
H          -5.53273115483087   -8.24860728050583   -0.00702690934306
H          -4.81539278782991  -12.85101368664941   -1.05923983302387
H          -7.19949997832218  -13.85148470367752   -0.89693258964888
H          -8.97241694559849  -12.03591492978573   -0.23852166812108
