36
         -61.664421905184          0.000750778867
C          -1.20150230576116   -0.04882034155368    0.00671621016517
N          -0.41809670221317    1.05158661700775    0.06902457930487
C           0.81036816296885    0.61338970723581    0.09282735903503
N           0.86337231392005   -0.73708690953354    0.05526628830697
H           1.69147690372966   -1.30821687521101    0.04863853698598
C          -0.43196408347563   -1.19583316307075   -0.00475754509919
C          -0.79805823509938   -2.59161720863773   -0.05863932458904
C           0.13843616504633   -3.60829235579758    0.16568245382512
C          -0.22464968171699   -4.93301700813238    0.09610371287649
C          -1.54839931145793   -5.29311563850832   -0.18139737540242
C          -2.49192718521709   -4.27794289699958   -0.40246980580583
C          -2.11995797788880   -2.95750437074122   -0.34500930843678
N          -1.82001559868682   -6.63470367403103   -0.30059181382158
N          -3.04741048616227   -6.97933842800362   -0.23306315017443
C          -3.31598776831697   -8.29665210343485   -0.44043514957108
C          -2.44449726764763   -9.38752640249658   -0.76775827745062
C          -3.22022483987081  -10.49382379368508   -0.87857480902757
C          -4.59648704417202   -8.81812485604447   -0.37084409526110
N          -4.53231628993178  -10.14688434363979   -0.63739909136387
C          -5.60651616375382  -11.01102649276613   -0.66683285811242
C          -5.68502974352923  -12.35052323118064   -0.93696318227892
C          -7.05623459508314  -12.68323340016139   -0.81467222074800
C          -7.69982861420245  -11.53395707225545   -0.48359681374944
O          -6.82630188476193  -10.51017528473827   -0.39110418460670
H          -2.26845063166474    0.04759482477248   -0.01517430907087
H           1.68237400156859    1.23487269972445    0.13689627617888
H           1.16347706306966   -3.36221001794273    0.40572873844074
H           0.49828579143939   -5.71500541175670    0.27195835083982
H          -3.50686407181816   -4.56435457086417   -0.63325612621234
H          -2.85036322564838   -2.18491146992114   -0.52947603424376
H          -1.38378910395510   -9.31718485162424   -0.89471742319432
H          -2.95505732395421  -11.50583292390472   -1.10927392484084
H          -5.52464997372037   -8.33048008724676   -0.15330562224713
H          -4.88381627867832  -13.01254020121385   -1.18891921813586
H          -7.49372525796734  -13.64949541425309   -0.95640820010873
H          -8.72998875538597  -11.31200304938959   -0.29290264240592
