32
         -51.526134848012          0.000624972168
C          -1.14048327965555   -0.01141253902558   -0.27709637820068
C          -0.26060830092071    1.06274533852670   -0.02790360508840
C           0.90757688387339    0.49984271249070    0.38717320737850
O           0.80962476697845   -0.83661814645487    0.41067157622361
C          -0.44221833805879   -1.16243764104270    0.00589254549529
C          -0.82518778820989   -2.55561142908269   -0.05139159902304
C           0.09097075096595   -3.55569833689156    0.29618729990829
C          -0.26295064294941   -4.88278123713237    0.24673242983022
C          -1.55902894930583   -5.25676130905438   -0.12992958902296
C          -2.47569991477957   -4.25623454356458   -0.48711991390936
C          -2.11218548447680   -2.93212031262386   -0.45208125769643
N          -1.83373020821501   -6.59935833681970   -0.22287092119719
N          -3.05728248192076   -6.94568387480624   -0.13806288990973
C          -3.33905686219259   -8.26175002400983   -0.33493841935349
C          -2.50331181671173   -9.36042763138728   -0.70195619857183
C          -3.30787297603061  -10.45461790967450   -0.77096103430633
C          -4.62517520646992   -8.77262103807206   -0.20301740568799
N          -4.59223074939422  -10.09096557766420   -0.46625605086756
C          -5.71179950402523  -10.98825115729537   -0.44203820861565
H          -2.15176804369614    0.06297058406028   -0.61966119276239
H          -0.46862202939954    2.10708264248014   -0.14077640947266
H           1.84464902876457    0.92829696948456    0.68337599015637
H           1.08622509380207   -3.26958872544082    0.60136621370471
H           0.44021207756187   -5.65521323548368    0.51855066112663
H          -3.46482747528897   -4.55720172531512   -0.79906950416353
H          -2.82657943990793   -2.17299602994142   -0.73169699981657
H          -1.44939090231254   -9.31024474611979   -0.88373518680346
H          -3.07414172179954  -11.47331203526068   -1.01372212045124
H          -5.52905918950058   -8.26200356868662    0.06288125262960
H          -6.60691093120862  -10.44429156788501   -0.14631236705081
H          -5.53799950117864  -11.79773046434518    0.27056131671322
H          -5.87434686433717  -11.42615510396232   -1.42983524119514
