31
         -51.758419373748          0.000758038160
C          -1.11679013396210   -0.00218572991580   -0.28697445451093
C          -0.21330561425073    1.06086183778130   -0.07795594311714
C           0.95339253915857    0.48568430931711    0.32428465727606
O           0.83294689599034   -0.84786881940941    0.37639755644798
C          -0.43287572308758   -1.15948749734281    0.00494548733303
C          -0.83595158898501   -2.54784446049416   -0.02286680067835
C           0.08249784363939   -3.55417654968939    0.29984396464978
C          -0.28401890312520   -4.87788658078732    0.26669812897794
C          -1.59409320941494   -5.24372910728893   -0.06905511688652
C          -2.51547911234847   -4.23622393259437   -0.39374971614947
C          -2.13997029299207   -2.91478985457212   -0.37440531023152
N          -1.86836839165635   -6.58554846122093   -0.15575989882376
N          -3.09000510010934   -6.94242138271562   -0.06412468362280
C          -3.34859071002290   -8.26384922785269   -0.25056908326251
C          -2.48523779846608   -9.34751513399925   -0.58526869108472
C          -3.26217503578445  -10.46486224531508   -0.65510906072670
C          -4.63152400376775   -8.79809596430455   -0.13967815043352
N          -4.55517206745315  -10.11399499782473   -0.38941497075674
N          -5.60239939916291  -11.02649995764872   -0.29427713220416
H          -2.13325504919737    0.08289735693908   -0.61127487946610
H          -0.40490212762025    2.10620717970046   -0.20854838772796
H           1.90391716228432    0.90302061092081    0.59213926570333
H           1.08979280060519   -3.27533740051305    0.57002228852011
H           0.42092461390420   -5.65603632107477    0.51629906164860
H          -3.51768532914322   -4.52907033741421   -0.66954349247591
H          -2.85763462509686   -2.14991583189452   -0.62918781395619
H          -1.42965969660451   -9.27728537091201   -0.74733108084970
H          -3.00768288743345  -11.48308319548113   -0.87513474179971
H          -5.55339732143020   -8.30744039883236    0.10044475251060
H          -6.49112912544748  -10.53511184994637   -0.30149801287314
H          -5.56642860901979  -11.68901068561455   -1.06476774142989
