30
         -51.711656563670          0.000372272165
N           1.18297651442344    0.33921089697811    0.41259505541266
C           2.53094136859242    0.23075856033376    0.19901321110275
C           3.40713044964037    1.21938054927836    0.66324670061032
C           4.76282022875012    1.08700901736521    0.49013790381538
C           5.29531156844014   -0.04228455296127   -0.14694986398119
C           4.41549015129043   -1.03721448135830   -0.60537775673291
C           3.06130312754228   -0.89946902652698   -0.43785571477973
N           6.65785328439884   -0.06866994614797   -0.29665131313718
N           7.16450751611027   -1.12838784179424   -0.80343315035768
C           8.52042856379936   -1.09646234631331   -0.97528793998536
C           9.46469297928565   -0.05029017561565   -0.78150371842625
N          10.67313931473594   -0.44762854255688   -1.09531766258500
C           9.28200619308771   -2.16288922883658   -1.43596280382731
N          10.55841807997067   -1.73099882894720   -1.48769036117204
C          11.68732246949404   -2.42038492501622   -1.87846491136080
C          11.91291340716911   -3.70517434691855   -2.30983547508316
N          13.23451917691905   -3.86572756618558   -2.56689930034743
C          13.80307136899303   -2.72326274640259   -2.30382584574856
N          12.90584893105989   -1.80140243081126   -1.87890680014545
H          13.04186748707533   -0.84190562869473   -1.60247221266259
H           0.81704526143889    1.24114350105338    0.66543432540003
H           0.57158084533001   -0.25711515064181   -0.11842450567989
H           3.00159130022122    2.09080216346445    1.15757204919614
H           5.44292727843938    1.84712733082675    0.84207863289451
H           4.83168516310541   -1.90203407141812   -1.09905100605635
H           2.38534665049245   -1.66268215997913   -0.79818708245242
H           9.27954847113761    0.94672499079211   -0.43773786545505
H           9.00191069258767   -3.15775099560652   -1.71047610956990
H          11.21976824240394   -4.50857773753791   -2.44814103175365
H          14.84976391406498   -2.52243427982059   -2.40659544713078
