26
         -41.570543880212          0.000628625277
N           1.16132052351749    0.01526750820601    0.05623077382314
C           2.52609841640444   -0.02738107703136   -0.07911364803220
C           3.24927400153022    1.13517739163763   -0.36775897540584
C           4.62105644589614    1.10478444244163   -0.43736914785090
C           5.32099501260051   -0.09025160514961   -0.22709161343620
C           4.59373062672498   -1.25628053706982    0.06175950509462
C           3.22407270939578   -1.22281276005881    0.13499725300499
N           6.69013439441091   -0.01649111465566   -0.30953897450188
N           7.33290366027493   -1.11277206824686   -0.17064174147850
C           8.69414798747733   -1.00642442221241   -0.22983213802829
C           9.55243869016333    0.11689291410075   -0.36239054556111
N          10.81050099528460   -0.25756110629776   -0.35229250229239
C           9.56874865753328   -2.08583999259050   -0.14164838765664
N          10.81126355525207   -1.58720643190260   -0.22014538053198
C          12.05059672611282   -2.30734881993217   -0.19144867085921
H           0.68058767700452    0.81019360816392   -0.33000608896739
H           0.66312113065786   -0.85794578014133    0.02207695555500
H           2.71389550931950    2.05954529992068   -0.53349607399698
H           5.18414628118199    1.99767541354793   -0.66090724736209
H           5.13862221973680   -2.17375612654711    0.22451623115457
H           2.66651885726179   -2.12173992751124    0.36051623853022
H           9.27876834730396    1.14780408004280   -0.45437782318810
H           9.37353576641238   -3.13297523258636   -0.03391759252646
H          12.07137985771368   -2.99724876816952    0.65291511797460
H          12.85333222591233   -1.58013401855802   -0.09076947175168
H          12.19298972491552   -2.87214086939987   -1.11559605170963
