28
         -51.953145168162          0.000597887667
C          -1.10763472132917   -0.06237780749226   -0.02716897853350
C          -0.33767273702320    1.11116037838641    0.05747004002410
C           0.99146412414914    0.85689903228129    0.18839625168464
S           1.32874394563978   -0.82275602560065    0.21345235753295
C          -0.36265295543007   -1.21325371901376    0.04095810294204
C          -0.80156165763447   -2.58694471491387   -0.01278831834480
C           0.11524294797508   -3.63471694111040    0.14477118131669
C          -0.28802805834880   -4.94610441897016    0.08339693941136
C          -1.63727968800755   -5.26230812008757   -0.12328650217852
C          -2.56184535293857   -4.21813794356790   -0.28279804496752
C          -2.14926876262015   -2.90998798727283   -0.23159436298348
N          -1.94795898537735   -6.59592556987139   -0.21543392901309
N          -3.18291069346950   -6.90736403003520   -0.17040445811742
C          -3.45637848355506   -8.23913697775775   -0.32593515601543
C          -2.60774324722616   -9.35385341112699   -0.55922693215461
N          -3.30969612582391  -10.46333415330293   -0.64897275619776
C          -4.74130209617067   -8.78125654651928   -0.28332587304406
N          -4.55263213692637  -10.08589526312252   -0.48209005624946
F          -5.54406933860171  -11.01527621376836   -0.52194455358429
H          -2.17728324599807   -0.04884423341336   -0.12958614581604
H          -0.75416806692654    2.10204562657202    0.02228504474126
H           1.79954693778025    1.55616956407692    0.27189257496832
H           1.15654403143363   -3.39980844161105    0.31276950550328
H           0.41854949363936   -5.75223967457803    0.20583156511267
H          -3.59653017876863   -4.47088475078806   -0.45939394397924
H          -2.87332028908112   -2.12135403979332   -0.36582192101213
H          -1.54223315247436   -9.36580340650692   -0.65859409740263
H          -5.70354150688577   -8.34052021109227   -0.13380753364324
