35
         -61.910738264124          0.000754911579
C          -1.09634494537086   -0.04496461033607   -0.24090034955509
C          -0.23748498564012    1.00839395509908   -0.06660670288879
C           0.98487355090375    0.41107151082735    0.28893194325641
N           0.87591628263675   -0.89622955641417    0.32686824984283
N          -0.39103394748613   -1.18009032875685    0.00457317443310
C          -0.82164886337819   -2.50429987234494   -0.04577959610845
C           0.09577532657393   -3.51663742471483    0.24696625283875
C          -0.28503195635580   -4.83606361992214    0.19062748622853
C          -1.60250095760173   -5.17923951948379   -0.13867755397205
C          -2.51856916778654   -4.15816970944208   -0.42811808656948
C          -2.13295340913422   -2.83839746925258   -0.38767668556373
N          -1.89684811153158   -6.51864426446779   -0.23516439503837
N          -3.12977383569179   -6.83788230756582   -0.20761383667955
C          -3.41135845265889   -8.15904221890769   -0.39483750709110
C          -2.58203895363661   -9.26893024301809   -0.73005779387508
N          -3.28798811415805  -10.36488655599108   -0.83201768886705
C          -4.68707725830128   -8.70280960753483   -0.30660911997646
N          -4.56207567715708  -10.01877557189468   -0.57141289246760
C          -5.55936089469085  -10.97094890472771   -0.59399420876799
C          -5.50003759815510  -12.30750959507658   -0.87367173713991
C          -6.82897168843912  -12.77610042606778   -0.73937771739492
C          -7.58211107979797  -11.69892401618227   -0.39214708175058
O          -6.81725229377660  -10.59068866664853   -0.30116603523199
H          -2.13043080055699   -0.05238071063725   -0.51522618759051
H          -0.44919587806116    2.05185984144849   -0.17657466320020
H           1.92048118780664    0.88329382612781    0.51322867285407
H           1.10241815843557   -3.23246195541179    0.50789130165455
H           0.41529472457488   -5.62537027456278    0.41436872347145
H          -3.52661524790681   -4.43444938745468   -0.69785171916662
H          -2.85409527203782   -2.07127688231201   -0.62288496523866
H          -1.52402531010010   -9.27154149473435   -0.89466071832719
H          -5.62941559967318   -8.25166780625362   -0.07604533587606
H          -4.62311162882030  -12.85938865819451   -1.13603783842032
H          -7.17070628453514  -13.77994945902041   -0.88302024660741
H          -8.62740101849126  -11.58410801617080   -0.18830514121456
