31
         -51.787604814859          0.000558327375
C          -1.07339404237302    0.02624527605618   -0.28430685330235
C          -0.14941092904222    1.07181173624450   -0.07795043596977
C           1.00811871296520    0.47386353230425    0.31916524782733
O           0.86292602281016   -0.85659839210839    0.37082698088702
C          -0.40942533670315   -1.14423837665550    0.00338135488116
C          -0.83673887782980   -2.52466756978783   -0.03020658091591
C           0.06656200255051   -3.54767532841009    0.28426380608847
C          -0.32037928296810   -4.86522406972809    0.23902795947473
C          -1.63648638361266   -5.20529405638584   -0.10023121547564
C          -2.54402117822791   -4.18147725109495   -0.41357431784884
C          -2.14766860663914   -2.86657463211737   -0.38300569401002
N          -1.93026094758750   -6.54254190899390   -0.19283196242596
N          -3.15816929742893   -6.87754038407284   -0.13771247270281
C          -3.42232469508250   -8.20288477096340   -0.32532078222535
C          -2.58000161926757   -9.30660854910287   -0.62740862435853
N          -3.28219239190107  -10.40977237909347   -0.72361546959398
C          -4.69598012618098   -8.76494187850525   -0.25308559344290
N          -4.55664933682406  -10.07362208840631   -0.49550350911830
C          -5.57900126618332  -11.07781152617803   -0.54021877798643
H          -2.08947802099120    0.13139609534076   -0.60385866351780
H          -0.32186421426721    2.12064605477655   -0.20719640445111
H           1.96726532915679    0.87349078122095    0.58363318471800
H           1.07800145579753   -3.28607222237952    0.55566623132571
H           0.37185954583474   -5.65734457588228    0.47992971887193
H          -3.55034327615086   -4.45690078934594   -0.69215388588906
H          -2.85244518181766   -2.08786451891963   -0.63114357322188
H          -1.51865360383789   -9.30755404417773   -0.76840389788721
H          -5.64298713220343   -8.30953616602237   -0.04801281445531
H          -6.52816457844939  -10.64531065750121   -0.23189499643053
H          -5.31391015450982  -11.89884579458711    0.12687611464201
H          -5.67005258903511  -11.47469154552349   -1.55318407348690
