28
         -47.785670176838          0.000801459190
C          -1.10202295415332   -0.06164682007288   -0.02047749555112
C          -0.33171863539961    1.11321870013696    0.05407025498152
C           0.99788834923061    0.86062007303272    0.17514569455820
S           1.33581401211319   -0.81983113838272    0.20537692992807
C          -0.35696871760261   -1.21159778809189    0.04681131390581
C          -0.79462608261078   -2.58647542690890   -0.00329852949415
C           0.11648968250430   -3.63203158670955    0.19455915676792
C          -0.28327025116872   -4.94451303074148    0.13208340705138
C          -1.62496400769899   -5.26439685088636   -0.11282648477413
C          -2.54335169105582   -4.22261791492314   -0.31279221140305
C          -2.13343495624487   -2.91283294984960   -0.26225784271721
N          -1.93493729372995   -6.59723047706513   -0.22320286374696
N          -3.16313587191521   -6.92004412489218   -0.12508880050984
C          -3.44437984910176   -8.24359813292986   -0.31642804495449
C          -2.61044422431702   -9.35306028922310   -0.63178057365218
N          -3.31653619526339  -10.45306737416898   -0.72108052956744
C          -4.71992868544385   -8.79229214697564   -0.22715705762664
N          -4.58379468783132  -10.10280681404599   -0.47699873219059
H          -5.30465329308914  -10.80751301795777   -0.49507746106606
H          -2.17327477660102   -0.04937629637769   -0.11389317043490
H          -0.74938622885954    2.10382994862887    0.01727822867092
H           1.80678724546583    1.55996209147268    0.24933191331487
H           1.15162730490103   -3.39463713305121    0.39481757287436
H           0.42023181915936   -5.74807222235487    0.28596506078778
H          -3.57138271850596   -4.47770911486689   -0.52297911040540
H          -2.85312159750085   -2.12639027801749   -0.43042239420696
H          -1.55091885467407   -9.35485300892833   -0.78447773487363
H          -5.66231684060645   -8.33322687584993   -0.01139049566636
