29
         -53.133595767805          0.000568954303
C          -1.08863225225315    0.00484664004029   -0.27810072337166
C          -0.15931611781299    1.04624292183757   -0.08257259643673
C           1.00301830513054    0.44288347280835    0.29581359240215
O           0.85540717411332   -0.88580295899981    0.34603580756055
C          -0.42331283644672   -1.16928211378149   -0.00290795334980
C          -0.85554644462606   -2.54650620576634   -0.03289096566816
C           0.04812835266093   -3.57348413636161    0.26989927648089
C          -0.34606894578147   -4.88871160719737    0.22891091629795
C          -1.66809009876309   -5.22097628128288   -0.09787168036024
C          -2.57726183889913   -4.19293112408138   -0.39806703386232
C          -2.17414593585150   -2.88124811877042   -0.37001938316683
N          -1.96558975254645   -6.55786943113592   -0.16025646362266
N          -3.19796383010180   -6.87956147808126   -0.20547103297410
C          -3.44521161946946   -8.21732687942014   -0.34943547735689
C          -2.56346738642183   -9.31421641705925   -0.61798426477682
N          -3.21824124467984  -10.43431675203245   -0.70999612260930
C          -4.69928570706978   -8.79198024779743   -0.29023194156554
N          -4.52067113748990  -10.12650821697709   -0.50657534314533
C          -5.48067837054825  -11.04468511409846   -0.52353286836042
N          -6.32714236203416  -11.81414901704331   -0.53199209557901
H          -2.10897709970835    0.11386467467391   -0.58242422710358
H          -0.33026989817407    2.09581642438101   -0.20611866209694
H           1.96687541634374    0.83994790323854    0.54697151528084
H           1.06378186992775   -3.31655243490165    0.52931082092796
H           0.34413909812307   -5.68512500066416    0.46076559002286
H          -3.58849608041519   -4.46276744349142   -0.66309087830373
H          -2.87714602552037   -2.09847995937420   -0.60892370978175
H          -1.50052260239320   -9.28163043631398   -0.74465807626141
H          -5.66544262930160   -8.36801066234971   -0.10827601921903
