35
         -61.444497767069          0.000426868399
C          -1.08517076005433   -0.08138670246594   -0.00803816680761
C          -0.30547914236035    1.08548827393731    0.08975917746923
C           1.01962524935626    0.81943901216101    0.23167068731876
S           1.34158280304730   -0.86436507440360    0.25286394021972
C          -0.35152110468041   -1.23878471433322    0.06122737773010
C          -0.80148125043482   -2.60887706028546   -0.00695457091147
C           0.10112546196232   -3.66529761744532    0.17113812180298
C          -0.31055861973835   -4.97307349569137    0.08927380335640
C          -1.65546888251805   -5.27721119273812   -0.15846058589909
C          -2.56611652193102   -4.22411949061042   -0.33551347327812
C          -2.14471169340032   -2.91931915555750   -0.26395543028968
N          -1.97560606516998   -6.60577540305427   -0.28761918958579
N          -3.21297390619224   -6.91153999352361   -0.23795811718412
C          -3.50274124954328   -8.22879950279537   -0.44407717159555
C          -2.66481766000765   -9.34655680591308   -0.72927427400887
N          -3.37105315025596  -10.43998775181967   -0.85396485953716
C          -4.78389902497652   -8.76450178892527   -0.41159891398245
N          -4.65420943308163  -10.08375683013039   -0.66191002951719
C          -5.65469803071681  -11.03052486245972   -0.72637812316677
C          -5.58845288527526  -12.37132057117287   -0.98317041104050
C          -6.92568527072841  -12.83079787997667   -0.91480325674907
C          -7.69009193207071  -11.74458767031074   -0.62546412435890
O          -6.92421146537997  -10.63937208456730   -0.50807873776465
H          -2.15382108384456   -0.05823364413744   -0.11903232848328
H          -0.71336383801712    2.08009188646487    0.05636687666133
H           1.83311678627703    1.51103519950917    0.32665848562615
H           1.13928077529107   -3.44013069542889    0.37014378522904
H           0.38644740469754   -5.78519549369919    0.22681638368333
H          -3.59747429298034   -4.46704820233273   -0.54343117291758
H          -2.85859262808855   -2.12395400614006   -0.41334245820691
H          -1.59955175449077   -9.35723583436033   -0.83690132843788
H          -5.73507085220982   -8.30727921016330   -0.23567074301527
H          -4.70232171170342  -12.93230618132766   -1.18910036592099
H          -7.26524199938127  -13.83494090328015   -1.06190928571978
H          -8.74425227139946  -11.62095455302263   -0.48127152071825
