25
         -46.358566319817          0.000836068883
C           1.68525573220749   -0.54796907475494    0.82607107831446
O           2.39559308637869    0.06554366984085   -0.22358682083671
C           2.92307514421549   -0.70908746722307   -1.20118871702092
C           3.61560966156043   -0.02684876762460   -2.20969108649124
C           4.18222752599368   -0.71307066207539   -3.25398669707834
C           4.09178608008551   -2.11124336142506   -3.31588533875884
C           3.39894248351376   -2.78887313208909   -2.30462390798142
C           2.81666054457988   -2.09965798527613   -1.26439367242648
N           4.66516543948977   -2.71674679911059   -4.40756182756805
N           4.76903681803993   -3.98714345668175   -4.37261679219251
C           5.28733879962262   -4.56335482424474   -5.50121349715599
C           5.57654844335560   -4.02595377358154   -6.78338942078880
N           6.03784958638980   -4.96009068011990   -7.58830148970871
C           5.61773285481690   -5.91410053471084   -5.60685701891401
N           6.05255034797287   -6.04814019227353   -6.86090251949100
F           6.49067481130833   -7.21353657968490   -7.40836448002337
H           1.37365059353828    0.26260210990261    1.48261499538835
H           2.31764427527244   -1.24370443950198    1.38549833185565
H           0.80003973954598   -1.07447219345024    0.45689308946756
H           3.68414886232596    1.04741051022355   -2.14083795644498
H           4.71672724737708   -0.19451477425597   -4.03414170962948
H           3.32082484079005   -3.86379627682868   -2.36631322196733
H           2.27958020735755   -2.64748805598475   -0.50575276455931
H           5.44949853088877   -3.01895415251513   -7.12264777234302
H           5.58162834337290   -6.72176910655453   -4.90767078364586
