28
         -48.271142524493          0.000535459562
H           1.11721267341009    0.32948668654304    0.11547482005937
C           2.18691295488021    0.25101631179693   -0.01034386326185
C           3.01486080055145    1.26485281468398    0.44942963828928
C           4.38081440239564    1.17585501934783    0.27907405891339
C           4.93727925678491    0.05053502902385   -0.33794332844064
C           4.09548136312039   -0.96955871826112   -0.79914351873356
C           2.73060705318909   -0.86101202069749   -0.63742964979790
N           6.30400351784037    0.05669044792099   -0.51911520776337
N           6.85812969336083   -1.06699115181164   -0.73952826266025
C           8.20106993765330   -1.03008471287400   -0.98567421896944
C           9.10810377857965    0.05814628405208   -1.11692089747686
N          10.31882794385794   -0.37422012330708   -1.36598664429693
C           8.98934597343245   -2.15900991443221   -1.18117524906589
N          10.24150191088069   -1.71896582660117   -1.40171193083280
C          11.38159021813832   -2.45775968604484   -1.64434777296899
C          11.63124324351867   -3.80583789099215   -1.73932158525983
N          12.94781218483383   -3.99949763947054   -1.99500777632874
C          13.49049816169919   -2.81613572269483   -2.05620117151539
N          12.58072758229165   -1.83437532911289   -1.84939713912579
H          12.69707203352089   -0.83331600253565   -1.83487044740506
H           2.58807584736334    2.12987849755505    0.93583309006662
H           5.04144630752001    1.95350501747678    0.63051883347957
H           4.53942013947475   -1.82224032893808   -1.29112203346501
H           2.08164095244917   -1.64567258594889   -0.99908712952991
H           8.89685820920883    1.10496302757473   -1.03883393225937
H           8.73649934398356   -3.19804407699150   -1.17145745804822
H          10.95812826727785   -4.63193333318994   -1.64067539666963
H          14.52760624878307   -2.62903407207098   -2.24585582693281
