21
         -34.955915051064          0.000678468368
H           1.10684980842867    0.01950788202069    0.14033369991414
C           2.18456745497746    0.00757816418778    0.07074548522449
C           2.88790253876641    1.20139956521430    0.00105476766636
C           4.26336603731801    1.19178466740253   -0.10266156079498
C           4.95554323546813   -0.02346237508008   -0.11274062683885
C           4.23944932851163   -1.22474503665211   -0.04276610612040
C           2.86346511628511   -1.20200505712583    0.04328280428875
N           6.32380203411678    0.04106010593756   -0.27370981100423
N           6.99387567993500   -0.97200791960855    0.09849366098136
C           8.33956925918798   -0.92153656206078   -0.13833395171356
C           9.14865346055637    0.02523543567373   -0.82651872765135
N          10.40546825436471   -0.34511405665874   -0.81567151891244
C           9.23980544324315   -1.89499567342299    0.28367869964040
N          10.44783822565261   -1.49995603758706   -0.14296767048615
H          11.33314071824346   -1.96425261454268   -0.01152933288672
H           2.35633064237676    2.14161141524195    0.02079733883148
H           4.82775876091694    2.11000891114112   -0.15662901676902
H           4.78711508268311   -2.15494010556126   -0.07387923733667
H           2.31174001593797   -2.12999158943412    0.09035554857256
H           8.83729425439074    0.92796336640034   -1.31033259583095
H           9.08138464863900   -2.79474248548577    0.84106815122578
