28
         -52.780470733250          0.000691797047
C          -1.09782461624395    0.01524729365148   -0.27948223568798
C          -0.18727649707632    1.06948567795016   -0.06323911329092
C           0.97352415364984    0.48243662492770    0.34291409188021
O           0.84264876999275   -0.84863873854954    0.39039528171218
C          -0.42379178353206   -1.14931839182777    0.01232933718556
C          -0.83734234617121   -2.53285070514489   -0.02480943628076
C           0.07463414540556   -3.54869022038651    0.28912574747660
C          -0.30216613404269   -4.86907559598883    0.24222439046756
C          -1.61607288619953   -5.21812630848331   -0.09768947777913
C          -2.53281743170520   -4.20170396160149   -0.41060428098003
C          -2.14611167954284   -2.88465029449291   -0.37968575806177
N          -1.90043817072944   -6.55829207818947   -0.17243938292169
N          -3.12867072389506   -6.89371815349346   -0.16000601941892
C          -3.37669087451616   -8.22985887982304   -0.32239043300121
C          -2.51726190763323   -9.31972940307429   -0.62245141634092
N          -3.20003498279246  -10.44164477053807   -0.70723913193674
C          -4.64698540631620   -8.80077234801075   -0.23370132406112
N          -4.44086728823203  -10.09629375160196   -0.46976406949854
F          -5.41228734249796  -11.04677271575253   -0.48181980579078
H          -2.11185574411570    0.10972961747272   -0.60863757351409
H          -0.36927115986075    2.11665244988447   -0.19181590183707
H           1.92573833337062    0.89241154815745    0.61646564538095
H           1.08363501690586   -3.27972574005013    0.56204692083318
H           0.39510924320189   -5.65647723267893    0.48331947548242
H          -3.53703326012438   -4.48399702721364   -0.68925063733653
H          -2.85614364175046   -2.11126450096975   -0.62842804506213
H          -1.45843614681361   -9.30670743461682   -0.77821719343147
H          -5.60826963873558   -8.38274495955605   -0.02432965418694
