28
         -52.432917318698          0.000685476910
C          -1.10333570644478    0.00127833194146    0.04200210639311
N          -0.28808894384912    1.07797588629469    0.06383342025603
C           0.92800940502958    0.60683662939874    0.01515391565322
N           0.94267162378310   -0.74359980911782   -0.02752313938868
H           1.75291818497174   -1.33704933127628   -0.08955673511861
C          -0.36618399120158   -1.16678789717763   -0.01644066817602
C          -0.77278847638595   -2.55045841150465   -0.04842632025954
C           0.14032450633892   -3.59001464936895    0.17065227019251
C          -0.26092291624446   -4.90406802820031    0.12139989967762
C          -1.59958112454171   -5.22776987844175   -0.13060795579839
C          -2.52082842504704   -4.19003810579360   -0.34372554051493
C          -2.11071278591132   -2.88064566118804   -0.30643442363976
N          -1.90287547668081   -6.56435352214270   -0.21168022586161
N          -3.13704917615388   -6.87968054824102   -0.17799745945909
C          -3.40659517871776   -8.21224259243885   -0.33071043785666
C          -2.56020932443863   -9.32017447385853   -0.60153643953054
N          -3.25948191644105  -10.43212201997361   -0.68021540486643
C          -4.68702147157185   -8.76172387712166   -0.25349687741044
N          -4.49823370665961  -10.06343094654446   -0.46871859999450
F          -5.48394669940845  -10.99835495115489   -0.48330662368383
H          -2.16613698969252    0.12508073236958    0.08615561172703
H           1.81692878480864    1.20548768440161    0.01012553495517
H           1.17491536498818   -3.36893855903058    0.39227458246296
H           0.44063509082545   -5.70592732664783    0.29281726717407
H          -3.54768536362385   -4.44908650743428   -0.55322772755310
H          -2.82100383966951   -2.08886399769557   -0.48721984991701
H          -1.49883701693294   -9.32671169547577   -0.73881177580414
H          -5.64480443112878   -8.32551647457729   -0.06636840365841
