35
         -60.618105243645          0.000977812511
C          -1.03775559097819   -0.05165821438192    0.00158146975452
C          -0.25035679907233    1.11117160039688    0.08617132352034
C           1.07551721698403    0.83848901315677    0.20109538079956
S           1.38921518681174   -0.84688758150835    0.21298138251722
C          -0.30899212301189   -1.21285300755035    0.05577760148259
C          -0.76729567375966   -2.58053868555893   -0.00542221256015
C           0.13077216543580   -3.64185053771042    0.16655490116071
C          -0.28943378954685   -4.94737729069460    0.09243995159960
C          -1.63848171787272   -5.24425634820266   -0.14117772307137
C          -2.54428700965063   -4.18596045797919   -0.31325208566301
C          -2.11455145214286   -2.88364366041505   -0.24941930668730
N          -1.96877131757342   -6.57083827784865   -0.26397397708008
N          -3.20832286194843   -6.86636786852889   -0.19902601586738
C          -3.51335381113831   -8.17994803600969   -0.40229011657686
C          -2.69430906199218   -9.30657265237963   -0.70502756338875
N          -3.41659963433782  -10.38980456457820   -0.82286603807684
C          -4.79969838099731   -8.70148983141302   -0.35204840485825
N          -4.69310499397944  -10.01985804054867   -0.60910670133215
C          -5.70292129860297  -10.95667319505553   -0.66622149541988
C          -5.57039588827843  -12.28535472204844   -0.94934352342804
C          -6.80898774986271  -12.95973852640697   -0.92160590873374
C          -7.85082688043630  -12.14402019251705   -0.62148958365101
S          -7.35355515691977  -10.51655891494126   -0.36085230644139
H          -2.10853538093265   -0.02303462225631   -0.08965820841356
H          -0.65368742968527    2.10783508561074    0.06067536052180
H           1.89399935052407    1.52583564315985    0.28070239795363
H           1.17156315541572   -3.42198713837996    0.35590078112600
H           0.40363789010085   -5.76320885009769    0.22657400386668
H          -3.57856762795673   -4.42365366170742   -0.51169859791166
H          -2.82460077071679   -2.08456085157442   -0.39596576673330
H          -1.63110239993251   -9.33092600743842   -0.82988044852678
H          -5.73991749824487   -8.22767260618427   -0.15844985142481
H          -4.62181483074478  -12.73947799761617   -1.16474374323971
H          -6.91666305435361  -14.01091945444405   -1.11798029479048
H          -8.89022478060282  -12.38894954634824   -0.53427468042610
