35
         -61.567214270054          0.000472184623
C          -1.04012477312395   -0.01759047712301   -0.21250210236065
C          -0.16332545974607    1.01815513490171   -0.02393555712026
C           1.05525795262857    0.39413657439057    0.29827962426828
N           0.92758354715950   -0.91184309216240    0.30370513383575
N          -0.34819218079864   -1.16892815166117   -0.00648983793308
C          -0.80101048080956   -2.48442083855297   -0.07482874989637
C           0.10951090992495   -3.51711398557923    0.16348429831224
C          -0.29656732927217   -4.82849140391226    0.09945763542672
C          -1.63168439160762   -5.14417841192713   -0.18334676704970
C          -2.53931977281812   -4.10326294876737   -0.42495652925763
C          -2.12895397740528   -2.79114335949624   -0.37666988621396
N          -1.94948092455754   -6.47843409303708   -0.27229639165910
N          -3.18618131915162   -6.78150827284711   -0.21543917676477
C          -3.48022571889477   -8.10416966306222   -0.37636574509630
C          -2.65412319018240   -9.22578443898026   -0.66784734922350
N          -3.36801600392335  -10.32049861742915   -0.74514122209441
C          -4.76203516033751   -8.63717436912026   -0.28687917164936
N          -4.64464324622533   -9.95845071406111   -0.51158113202763
C          -5.63450888028880  -10.91997769957993   -0.52605508845687
C          -6.99156429932518  -10.88322686283749   -0.31133579751964
N          -7.49948400920376  -12.13182546692895   -0.44798323037329
C          -6.49438212184537  -12.91058027336670   -0.73484970326888
N          -5.32832581751304  -12.22441629820493   -0.79643121834506
H          -4.39446718035232  -12.54912000498490   -0.99236770373101
H          -2.07761296898656   -0.00250567465840   -0.47327688784327
H          -0.36105744933188    2.06705443381643   -0.10341451293858
H           2.00045487214056    0.84737306629282    0.52145947830930
H           1.13016686708365   -3.25520026109296    0.39154590139085
H           0.39792556701278   -5.63307592779807    0.28358893429954
H          -3.56191930652120   -4.35605862117988   -0.66106088276667
H          -2.84451946844082   -2.00779982941098   -0.57208925330695
H          -1.59395386425571   -9.24184581196803   -0.81676830192427
H          -5.70147630641100   -8.16892459254086   -0.08261955746014
H          -7.62113728717907  -10.05170713349056   -0.07140859877938
H          -6.56724682744048  -13.96530191363999   -0.90447065078193
