26
         -46.712125951624          0.000545335351
C           1.23052516411004    0.27168087606934    0.73408843294201
O           2.35211821690861    0.19136364597887   -0.11485139206709
C           2.88401853312793    1.33067150675265   -0.61128680412837
C           2.40617117800511    2.61605520202226   -0.35308023130210
C           3.02941740285395    3.70749591931078   -0.91854574457206
C           4.14587749586267    3.54930471246908   -1.74548856114933
C           4.62269662352772    2.25145366220948   -2.00242292522342
C           3.99907841196410    1.16580925194980   -1.44670677914475
N           4.68471580355817    4.70028679819249   -2.26265376788580
N           5.76247434100895    4.58290799155540   -2.93555410089412
C           6.24266631594073    5.74820164869280   -3.46866902662125
C           5.65488318232412    7.05101185364167   -3.56381230809277
N           6.44210618892242    7.88067861309820   -4.18367352039628
C           7.46558851146477    5.87770573939586   -4.09508083508394
N           7.55248938429386    7.17640308740082   -4.50490980160906
C           8.58332509519984    7.72119883499610   -5.14052480379884
N           9.48674294602529    8.16281292997052   -5.68616388260919
H           0.99002409410213   -0.75598498458369    1.00071850925815
H           0.37373754107045    0.72320360999301    0.22484059116760
H           1.45569381394812    0.83796920823099    1.64295246893610
H           1.55025186074431    2.77067972963905    0.28488334677716
H           2.66860342720801    4.70579701591083   -0.72494439953214
H           5.48063047514498    2.13436308916705   -2.64641406868877
H           4.34631329182763    0.16169416044024   -1.63447702621398
H           4.69552996099193    7.36192775751394   -3.20356571150818
H           8.25458073986429    5.17392813998391   -4.26231765856093
