35
         -61.580761691127          0.000547325169
C          -1.06164096384836   -0.00464902292156    0.03052289929860
N          -0.23371782116764    1.06238936303563    0.07342488405063
C           0.97665929144423    0.57583624895009    0.05459638723964
N           0.97487526147791   -0.77487086370958    0.00876781165804
H           1.77926265886328   -1.37774957087999   -0.02948551345161
C          -0.33886670408248   -1.18170877372225   -0.01180439725051
C          -0.76227466272634   -2.56048051871300   -0.06007321918100
C           0.13952398325601   -3.61501693716218    0.13065119188206
C          -0.27868923813425   -4.92337538907914    0.06561522544077
C          -1.62380162590741   -5.22691737644908   -0.17418092630042
C          -2.53340731475184   -4.17426403574133   -0.36001122391902
C          -2.10672781440101   -2.87063597031638   -0.30701269960136
N          -1.94891179187951   -6.55756685691746   -0.28010134657987
N          -3.18844246883917   -6.85162505938134   -0.21968047209358
C          -3.49677257291821   -8.16733498505945   -0.40553619577563
C          -2.68609438689656   -9.29169400244577   -0.72820623159990
N          -3.41374729211600  -10.37573030990643   -0.82805660972772
C          -4.78440567902015   -8.68684026945373   -0.32147403165444
N          -4.68451436178016  -10.00373448473014   -0.57877133314357
C          -5.68757468518091  -10.95077482548447   -0.61252484529988
C          -7.04246028775119  -10.90016650864698   -0.38768512974265
N          -7.56977131172298  -12.13693522898571   -0.55587828792681
C          -6.57848836089942  -12.92167236489661   -0.87208669045525
N          -5.40264632456707  -12.25126587972091   -0.92214951390100
H          -4.47497967616745  -12.58376789495629   -1.13349769246831
H          -2.12339228084296    0.13353616843133    0.04586029480433
H           1.87323205515224    1.16266655124399    0.07358751596233
H           1.18020364074434   -3.41148739113936    0.34045823949108
H           0.41590651835721   -5.73582111391111    0.21456766965915
H          -3.56584706461040   -4.41783996798933   -0.56031487632074
H          -2.81014655101011   -2.06801695192548   -0.46515020238995
H          -1.62704561174976   -9.31705547041335   -0.88392757349294
H          -5.71666266589764   -8.21142084947695   -0.10160675544969
H          -7.65770407741590  -10.06659345913261   -0.11966408932358
H          -6.66852981301100  -13.96987599839271   -1.07119226243696
