23
         -38.367151209741          0.000670394924
H           1.07397309084816    0.15359093416316    0.38335195310459
C           2.14257926790446    0.08630621613792    0.24136376026868
C           2.98230548411638    1.00613478679868    0.85233905951031
C           4.34663922199846    0.93338699489909    0.66256827114610
C           4.89034716243768   -0.08329685498682   -0.12922096417890
C           4.03680531163509   -1.00823980352624   -0.74317827563738
C           2.67359226203473   -0.91545973895575   -0.55826714135125
N           6.25601305867664   -0.05773068201407   -0.31979200270312
N           6.80175925090895   -1.13915350533325   -0.70873853065888
C           8.14318368249666   -1.07633015552611   -0.95510231690708
C           9.07125509083828   -0.00770364130679   -0.86545957697492
N          10.27794406790622   -0.41675232695269   -1.18674211248451
C           8.91063962565358   -2.16367404208059   -1.37654627486912
N          10.16181731238862   -1.70941169052385   -1.49558019593150
N          11.25971805734383   -2.43246784480370   -1.92225511220542
H           2.56608480742056    1.78643089766041    1.47287375122660
H           5.01578281321909    1.63938362316229    1.13000856182912
H           4.47033800352701   -1.77464158287733   -1.36828491370867
H           2.01573721569974   -1.62603519705530   -1.03807279649698
H           8.88569630338390    1.00769752108858   -0.58187064189819
H           8.64401356777910   -3.17867449503941   -1.58220809262248
H          11.59754525471234   -3.05729320934740   -1.19071293626372
H          11.99447008707049   -1.76922620358070   -2.15731347219329
