31
         -50.960312556664          0.000770502987
C          -1.08636157025004   -0.07073084803366   -0.01601406017500
C          -0.31321861488722    1.10148579415018    0.07417786449724
C           1.01492236422778    0.84420847996706    0.20439394988989
S           1.34771969715333   -0.83818440028651    0.22146026951057
C          -0.34475111015923   -1.22307791131547    0.04612545463367
C          -0.78701733980069   -2.59647994026554   -0.01222691256279
C           0.11688042330500   -3.64593172160896    0.19703178053589
C          -0.28835263590511   -4.95673300617013    0.13285649154151
C          -1.62865518036191   -5.27111166597795   -0.12599543131922
C          -2.53904631008250   -4.22514527543914   -0.34040502690312
C          -2.12366691067267   -2.91711386087389   -0.28741801599462
N          -1.94434749615373   -6.60220557473506   -0.23991519474236
N          -3.17547476705874   -6.91907075890582   -0.14863828979962
C          -3.46612191326377   -8.23649950319303   -0.35103573113363
C          -2.64714985640184   -9.35014681701060   -0.68040617370742
N          -3.36916783094413  -10.44008923339237   -0.77973353772546
C          -4.74802900283466   -8.77811006417748   -0.26645859661547
N          -4.63455365602741  -10.08542763878440   -0.52901183453799
C          -5.67410817822147  -11.07205427172381   -0.57100393378726
H          -2.15622827204119   -0.05505901541518   -0.11412541120030
H          -0.72804560594945    2.09344233058928    0.04661053286217
H           1.82530195863735    1.54067672751787    0.29326811183165
H           1.15106734153522   -3.41284821294814    0.40741869356656
H           0.40970397900582   -5.76319014229033    0.29642576859842
H          -3.56583685642900   -4.47575264993414   -0.56204595241077
H          -2.83734492390452   -2.12752807541420   -0.46656143612361
H          -1.58796633630988   -9.36694738272973   -0.83613306479325
H          -5.68438189286857   -8.30969966026918   -0.04227984631009
H          -6.61835451803084  -10.61867654315956   -0.27786095349421
H          -5.43159405331503  -11.88989284111029    0.10887268691541
H          -5.76104093199103  -11.47947631705982   -1.57996220104683
