35
         -61.928278279056          0.000215457136
C          -1.07418974035221    0.01589935150263   -0.23323881577606
C          -0.15422272923506    1.05907211622056   -0.00116683243227
C           1.01037347624962    0.45473889155435    0.36556914317263
O           0.87307695043971   -0.87717567808855    0.37495733162754
C          -0.40131894823242   -1.15986382515760    0.01044846965038
C          -0.82616937729104   -2.53950532909030   -0.05456551789810
C           0.08067115997010   -3.57027381028860    0.22188561614308
C          -0.31160198896946   -4.88608378135323    0.16173736301054
C          -1.63567603514380   -5.21514890058917   -0.15551513747789
C          -2.54474984068355   -4.18392202266341   -0.43956364391087
C          -2.14374233307140   -2.87152825604947   -0.39387608725308
N          -1.94522501975704   -6.55077198273328   -0.23868206018332
N          -3.18221565959914   -6.85580639330496   -0.19477309067497
C          -3.47919625838526   -8.17713268760157   -0.35951619795376
C          -2.66003099098263   -9.30422353658008   -0.64936023251968
N          -3.38218602118706  -10.39319757173789   -0.73674941063425
C          -4.76566149350664   -8.70002889144770   -0.28201655469628
N          -4.65767643278359  -10.02146482447264   -0.51181834970195
C          -5.65764936443659  -10.97175926329996   -0.54122366574379
C          -7.01659307805628  -10.91903184328693   -0.34340906171608
N          -7.53842173725467  -12.16074386840640   -0.49170028763790
C          -6.53977190789536  -12.95044167571174   -0.76994968436837
N          -5.36446698899325  -12.27858349237988   -0.81375888001920
H          -4.43245282445399  -12.61382818408500   -1.00014996490646
H          -2.09364106047935    0.12570150761205   -0.54020278777459
H          -0.33373303892108    2.11054821727631   -0.09372133009235
H           1.96947477806174    0.85122349002515    0.63487116380731
H           1.09771350015458   -3.31643589982187    0.47943191901936
H           0.38236970136030   -5.68401288902431    0.37709941747205
H          -3.55658856679825   -4.45192972795142   -0.70449403281299
H          -2.84990008906667   -2.08693830763540   -0.61761486437436
H          -1.59883545686856   -9.32854229483518   -0.79026642161186
H          -5.70247914539030   -8.22429341117885   -0.08308037591177
H          -7.63847318773460  -10.08069280010113   -0.10761742605618
H          -6.62383025070687  -14.00330242531329   -0.94550970976449
