35
         -61.100993559698          0.000343802760
C          -1.04128196491801   -0.06207888639217    0.00116420707197
C          -0.25179308800001    1.09854071400364    0.09417094236532
C           1.07422561219045    0.82246830902587    0.20491333803190
S           1.38554339194976   -0.86348395788961    0.19931853772926
C          -0.31388864075984   -1.22476583927443    0.04213150573540
C          -0.77525901362774   -2.59097436633908   -0.02632867013011
C           0.12049709719735   -3.65517423501394    0.13973779831846
C          -0.30392050022110   -4.95929354816612    0.06523153503295
C          -1.65494876747255   -5.25161225498184   -0.16272066822656
C          -2.55799258666578   -4.19068952154926   -0.33199056801496
C          -2.12398414252722   -2.88973233684524   -0.26824734453555
N          -1.99013273392538   -6.57743433882272   -0.28083688500476
N          -3.22968704173404   -6.86988816879067   -0.21001642222901
C          -3.53762943452991   -8.18419904095583   -0.40968573989306
C          -2.72016077369657   -9.30601997879142   -0.72449304346065
N          -3.44405138157533  -10.39096892126321   -0.83846074039848
C          -4.82526570810667   -8.70607289368899   -0.34609169425980
N          -4.71942490084532  -10.02188305961097   -0.60813805904456
C          -5.71891468070969  -10.97158523506529   -0.66453128121542
C          -7.07893893552541  -10.92706165867810   -0.47231325670361
N          -7.59663818013162  -12.16629108577923   -0.65266341200229
C          -6.59449032113131  -12.94669982074803   -0.94445255857451
N          -5.42096382025765  -12.27090887238120   -0.96656254755991
H          -4.48691685534516  -12.59875689886920   -1.15619952457670
H          -2.11195381071773   -0.03087070694543   -0.08582839872127
H          -0.65361408106667    2.09608257200559    0.08034961540843
H           1.89414934605437    1.50768798091338    0.28959187172858
H           1.16298025668261   -3.43889606994660    0.32532625549442
H           0.38766360675173   -5.77729270351333    0.19527287161142
H          -3.59378159550395   -4.42470572028345   -0.52770650507882
H          -2.83204153412430   -2.08823819688365   -0.41217950456785
H          -1.65854614158400   -9.32871760503998   -0.86204416135186
H          -5.76220119580789   -8.23373882865890   -0.13950712406227
H          -7.70438838501367  -10.09616486097382   -0.22020258948864
H          -6.67462909530003  -13.99536996380646   -1.14518777942710
