28
         -48.614660411334          0.000657564272
H           1.12938660397063    0.18630746054985    0.15834192804049
C           2.20104909863129    0.14090129101922    0.03082977537889
C           3.00179710478218    1.15942499027154    0.52741418592888
C           4.36973989028700    1.11414529510455    0.35522262803371
C           4.95635774684814    0.02621857967173   -0.29979378390140
C           4.14184912261900   -0.99789237673750   -0.79977264595277
C           2.77436815605233   -0.93211994283657   -0.63641796936733
N           6.32212928992690    0.07008342848510   -0.48132501042867
N           6.90332935210279   -1.03884168353031   -0.70557103599806
C           8.24246577103495   -0.97546106925127   -0.96018312139402
C           9.13128876716143    0.12799877440593   -1.11743625129035
N          10.34681411860772   -0.28408031607182   -1.37026043313474
C           9.04954917466295   -2.09052891986048   -1.14545362902062
N          10.29371083553379   -1.62827382967199   -1.38378418988736
C          11.43147548567803   -2.37046877624822   -1.62306197806229
C          12.71448754433285   -1.97291753791274   -1.87533423319520
C          13.45055295874099   -3.17125189685860   -2.03937250204212
C          12.56614739223343   -4.19038954345541   -1.87515050484653
O          11.32988832469480   -3.71279479682160   -1.62086638986306
H           2.55176318726999    1.99418010756134    1.04489632980525
H           5.00906477920797    1.89560427590354    0.73653792945167
H           4.60920492333642   -1.81904391907546   -1.32257611464983
H           2.14666864881017   -1.71915447911152   -1.02949779560024
H           8.90069027604323    1.17192749871327   -1.05466366072644
H           8.82329853944558   -3.13591841662118   -1.11764041086096
H          13.06483009276336   -0.96468776710873   -1.93213454323849
H          14.49623296298133   -3.25565737447156   -2.25065092516181
H          12.67626985224075   -5.25528905604094   -1.91124564801657
