30
         -51.676759993842          0.000454881060
C          -1.09264472635169    0.00049007068323   -0.02067747811888
N          -0.27234009351576    1.07493735438500   -0.00251441796335
C           0.94153784179432    0.59674304207814    0.00156190207566
N           0.94936316506001   -0.75495661364155   -0.00556887199513
H           1.75816234733221   -1.35312873123202   -0.01991264624752
C          -0.36147242529821   -1.17162617984498   -0.02373955634610
C          -0.77332042934056   -2.55526661408638   -0.03882714467179
C           0.13561845422355   -3.59643675456826    0.18738728600069
C          -0.26891703609648   -4.91009859390312    0.14741430885917
C          -1.60845827314770   -5.23286182621877   -0.09852353345139
C          -2.52551921737366   -4.19335764437525   -0.31709603296089
C          -2.11171185481389   -2.88433375448415   -0.29148939821658
N          -1.92070631169618   -6.56682638041279   -0.19671919016867
N          -3.14942333500778   -6.88345726084729   -0.07882236286606
C          -3.45114446411301   -8.19770872607294   -0.28202950645945
C          -2.66248486009767   -9.29197047632022   -0.72066433229899
N          -3.39312656332488  -10.38059381853355   -0.81081026148444
C          -4.72483347040198   -8.74231406628886   -0.10415191490198
N          -4.62375161455412  -10.03412619093110   -0.43031173272630
N          -5.63214579243609  -10.97707291243613   -0.36983725486157
H          -2.15562726650255    0.13136970698566   -0.01717432569770
H           1.83425219696104    1.18993364690818    0.01011872867591
H           1.17206815252448   -3.37826945773507    0.40405359777579
H           0.43204495587587   -5.71177031339323    0.32291148778071
H          -3.55359979538980   -4.45138020980055   -0.52270087612917
H          -2.82138786907733   -2.09274055576146   -0.47596774453715
H          -1.62070021314854   -9.30029998549065   -0.96694237040414
H          -5.64232458026388   -8.29887587336428    0.21999341129255
H          -6.29816754632104  -10.85662818160668   -1.13199500991245
H          -5.20172937549851  -11.89546269969136   -0.44502476004069
