35
         -61.084346186329          0.000925742809
C          -1.03555820539019   -0.00950851325752   -0.22228829362280
C          -0.16104559835396    1.02961135431990   -0.04027491028828
C           1.05524103337275    0.41086612447453    0.29974774959825
N           0.92776469691949   -0.89497228029795    0.32358219169264
N          -0.34514890443066   -1.15715736444980    0.00666135056922
C          -0.79589526803045   -2.47439674643489   -0.04831612582276
C           0.11115394083297   -3.50205822342420    0.22290760658385
C          -0.29041569798947   -4.81525043909182    0.16689242674039
C          -1.61830424733076   -5.13718334086260   -0.14118075369984
C          -2.52304945478793   -4.10112536093848   -0.41231482648405
C          -2.11699686589600   -2.78743231756715   -0.37161258316834
N          -1.93438646701752   -6.47264140262894   -0.22873627545367
N          -3.17282708638180   -6.77097320773867   -0.18994276022859
C          -3.47629663472826   -8.09024858656497   -0.35162867520958
C          -2.66265440620097   -9.22827088453640   -0.62542513475155
N          -3.38971950504399  -10.31179487410588   -0.70621544315739
C          -4.76427685677088   -8.60631811723873   -0.27732146820417
N          -4.66314010981479   -9.93184897949292   -0.49290632232815
C          -5.67663717569804  -10.86686237093392   -0.50312318348510
C          -5.55440850150035  -12.20423176753026   -0.74805758463682
C          -6.79393859460291  -12.87281470120695   -0.66967158458625
C          -7.82634959427702  -12.04417309851464   -0.37099356976333
S          -7.31838821644103  -10.41128747474259   -0.17293027310000
H          -2.07097975262764    0.00083394442147   -0.49155022318053
H          -0.35850975743987    2.07731753478582   -0.13567393724137
H           1.99867257015274    0.86693651709920    0.52460291836828
H           1.12636293671607   -3.23467519734057    0.46824260095161
H           0.40195370525137   -5.61543309877807    0.37649315924349
H          -3.54024197565266   -4.35980653295467   -0.66510724605906
H          -2.83034287351879   -2.00839930187163   -0.59126606991223
H          -1.60071529485619   -9.26081894977428   -0.75896245860210
H          -5.70084299662840   -8.12323577831571   -0.08923640646373
H          -4.61275365218618  -12.66911176220625   -0.97122235251837
H          -6.90975177603074  -13.92933619221237   -0.83023728200426
H          -8.86399341361879  -12.28262861008832   -0.25137425977519
