31
         -51.426646422534          0.000425014204
C          -1.08410207319850   -0.02514605190765   -0.24843028970408
C          -0.22252739732686    1.02732250162555   -0.07878157874365
C           1.00078744462257    0.42833979595881    0.26849656342277
N           0.89004607876185   -0.87921979949434    0.30631627886683
N          -0.37891208943090   -1.16090047588397   -0.00807043904696
C          -0.81257697015384   -2.48515139492743   -0.05206210581614
C           0.10477417775098   -3.49754901959747    0.24000832712768
C          -0.27860362622845   -4.81652423840805    0.19386645910210
C          -1.59902836960339   -5.16009439775064   -0.12285319500660
C          -2.51406741405505   -4.13906961048704   -0.41417233901678
C          -2.12567495643382   -2.81931326175483   -0.38490091246997
N          -1.89565503984295   -6.49944128887169   -0.21223942064049
N          -3.12399340746983   -6.82566080722072   -0.13273369134142
C          -3.40573430270005   -8.14899564433313   -0.30553953904258
C          -2.58504011491765   -9.26544157479630   -0.62097778966934
N          -3.30363713200442  -10.35996216248576   -0.69020011881373
C          -4.68443132141520   -8.69434766935570   -0.19584331470614
N          -4.56767265386759  -10.00615489239522   -0.43119197819888
C          -5.60237472933585  -10.99889371798705   -0.43578029620351
H          -2.11980793143106   -0.03111281294184   -0.51643069991790
H          -0.43378885416797    2.07120733692926   -0.18638629958189
H           1.93870734875642    0.89868123491546    0.48730864762219
H           1.11377316605510   -3.21431828973994    0.49281757466463
H           0.42256850077046   -5.60506231630430    0.41795749606648
H          -3.52472102912116   -4.41402003301930   -0.67618860688759
H          -2.84724721096530   -2.05262948704698   -0.62075675684524
H          -1.52783843561515   -9.28080026117146   -0.79025878826651
H          -5.61927048449572   -8.22397927855011    0.03106755981713
H          -6.53939773592708  -10.54956109735930   -0.11452186328382
H          -5.33244353255328  -11.81121835419396    0.24014191113688
H          -5.71980990445606  -11.41270293144503   -1.43908079462320
