21
         -39.123208056819          0.000589545362
H           0.98082405069453    0.04103399739092    0.00398676780328
C           2.05853037505754    0.02354458231227   -0.06295564242886
C           2.76685881509216    1.21400206170455   -0.14120230327688
C           4.14267284312634    1.19706973267544   -0.24049187444204
C           4.82827149620417   -0.02244882407788   -0.23878809087538
C           4.10696960653338   -1.22080460287350   -0.16025469521286
C           2.73115725173083   -1.19034191800780   -0.07787148818044
N           6.19722684759233    0.03990059597034   -0.38611430310520
N           6.85836395175688   -0.99204757714240   -0.05158286990139
C           8.20747331672243   -0.93210902976140   -0.27629178919798
C           9.01130838083156    0.02738603991121   -0.94710776035619
N          10.27502587503756   -0.33933479022114   -0.94220123140181
C           9.10742859019717   -1.91571637983976    0.13529891696351
N          10.29006070482759   -1.47805539712041   -0.29578065968045
F          11.46983377910719   -2.12630552347602   -0.11181392997497
H           2.23925004990857    2.15638346700536   -0.13121179041319
H           4.71249839014924    2.11136677872434   -0.30085366123644
H           4.65068629194909   -2.15331068444993   -0.18218848713642
H           2.17440146218574   -2.11471756220564   -0.02447780808697
H           8.70380993440942    0.93635173382587   -1.42118344902641
H           8.97666798688646   -2.82734670034432    0.67802614916718
