25
         -42.190843956283          0.000276479045
C           1.15786428486055    0.04265522042829    0.25063588286080
O           2.54944083783933    0.09951631195262    0.04827864439283
C           3.15125970333784    1.31326912303544   -0.03344092047907
C           2.49844427060972    2.53922029177742    0.08370036875578
C           3.21267708163935    3.71350489609800   -0.03467480903600
C           4.59123537001081    3.69661476218654   -0.25886914509749
C           5.24405160694115    2.45755077294054   -0.36678504193764
C           4.53369514615809    1.28978279765912   -0.25932013653886
N           5.20612770712064    4.91978160371537   -0.40386222650406
N           6.48049711889382    4.91353764977804   -0.45091629691586
C           7.07333661898323    6.12801110933890   -0.65586331894719
C           6.53202807588743    7.41449306690825   -0.93223763540741
N           7.48830204536778    8.29796572098005   -1.08511069319374
C           8.44932917936814    6.33170547720439   -0.65844626148707
N           8.63707136204708    7.63547678355375   -0.91439469976983
H           9.51140542609586    8.13193268058304   -0.98836597221384
H           0.90593117378757   -1.01655032906776    0.26710971477019
H           0.61341696584817    0.53107490283549   -0.56376251464791
H           0.87139079609761    0.49712151840384    1.20434639807845
H           1.43551696128007    2.58601240350459    0.26233161514178
H           2.71556391032080    4.66733536065195    0.05237458987440
H           6.30825610360694    2.44981190537774   -0.54623381228649
H           5.01663990089331    0.32887246522888   -0.34827284027875
H           5.50089592696124    7.68731330082403   -1.02385320422378
H           9.25522242604299    5.64720020410126   -0.49305768490921
