28
         -52.419152175553          0.000568324483
C          -1.10173178155868   -0.02227329604516   -0.25206285508984
C          -0.25217831294875    1.03805030713987   -0.07963643490170
C           0.97795412625928    0.45138671549623    0.27046295526801
N           0.88182187740339   -0.85640620460975    0.30720065520235
N          -0.38438755928530   -1.15210013310101   -0.01049376748223
C          -0.80442821100707   -2.47823936528144   -0.05523573886544
C           0.12032622034910   -3.48331912790704    0.24182515024158
C          -0.25400616865488   -4.80504538550658    0.19957339507017
C          -1.57238336156868   -5.15769328452678   -0.11784623251284
C          -2.49431138874880   -4.14432699745539   -0.41808550031209
C          -2.11472944233859   -2.82290863343550   -0.39367426744003
N          -1.86249605528627   -6.49903679633135   -0.18047555802293
N          -3.09308250970455   -6.82244977624828   -0.14708962544948
C          -3.36264592183728   -8.15517264805015   -0.29574481891175
C          -2.53000380355575   -9.25589470394601   -0.63096281611931
N          -3.23082874834919  -10.36809204498138   -0.69195117145870
C          -4.63644983005086   -8.70881716237797   -0.16038271746721
N          -4.45654422241449  -10.00629392901901   -0.40596732132723
F          -5.44151113498935  -10.94247136496912   -0.38212044052030
H          -2.13699885097565   -0.03792500479534   -0.52130902092775
H          -0.47375916898947    2.07974644267032   -0.18696597250425
H           1.90914912456157    0.93372559768934    0.49175194217906
H           1.12648658009049   -3.19146142780852    0.49643248730002
H           0.45073127056476   -5.58887340830371    0.42860494439863
H          -3.50166300437094   -4.42802322911843   -0.68280634441735
H          -2.83906308419234   -2.06178468916127   -0.63759654416553
H          -1.47813889872979   -9.25467994628215   -0.82878267730360
H          -5.58423773967182   -8.28135050373411    0.08785829553936
