35
         -61.097949934869          0.000832770567
C          -1.04902618256837    0.01110754006225    0.02681325803161
N          -0.22064940166678    1.07824856260599    0.06493599719700
C           0.99001410864136    0.59078174119703    0.05660432756578
N           0.98764185505027   -0.76033373880505    0.02059998645354
H           1.79181069380097   -1.36450045767701   -0.00863405745437
C          -0.32643974012280   -1.16659356777756   -0.00324815803626
C          -0.75028943619832   -2.54570134149071   -0.04331712899912
C           0.15198571888052   -3.59935273194923    0.15077407177736
C          -0.26591742951242   -4.90816446934219    0.09142525774306
C          -1.61119703856249   -5.21332520466147   -0.14623552550906
C          -2.52149953104867   -4.16108397409342   -0.33338498309545
C          -2.09526689417831   -2.85711025810863   -0.28567459161850
N          -1.93507558843759   -6.54401804603660   -0.25179638022565
N          -3.17536195770933   -6.83842440397441   -0.19483580680311
C          -3.48278168086683   -8.15316356628741   -0.38220760111423
C          -2.67039496994045   -9.28350732127182   -0.69002222767753
N          -3.39723082373291  -10.36511236635369   -0.79575059693482
C          -4.77000560264590   -8.67121759472372   -0.31491557004551
N          -4.66974690493223   -9.99090430409254   -0.56698353509487
C          -5.68322810663709  -10.92486581975177   -0.60672067934922
C          -5.55847011143061  -12.25524656636672   -0.88543982196766
C          -6.79864671084297  -12.92563581746815   -0.83792353834597
C          -7.83384888943810  -12.10518498149025   -0.52767750172509
S          -7.32832698572153  -10.47811493703696   -0.28142311070287
H          -2.11086594510933    0.15052865734286    0.03561221568951
H           1.88699313854965    1.17716201647015    0.07557046107045
H           1.19326463531774   -3.39487198767858    0.35717523051619
H           0.42932681005178   -5.71997030896886    0.24227265553438
H          -3.55444706766859   -4.40580182582087   -0.52998097105209
H          -2.79947516719390   -2.05518155851049   -0.44461997634783
H          -1.60904513359611   -9.31167917459387   -0.82975373831849
H          -5.70620740452951   -8.19393968451209   -0.11026080915081
H          -4.61441932170190  -12.71362826549699   -1.11166926599360
H          -6.91235753298370  -13.97740364197638   -1.02783941886581
H          -8.87266540131625  -12.34672060135867   -0.42533846715169
