30
         -52.024154101448          0.000622376231
C          -1.07604271925233    0.01562527560328   -0.28864763421357
C          -0.15455708455523    1.06420725251670   -0.08689704012467
C           1.00298682868248    0.47107507499981    0.31729701365375
O           0.86019573885479   -0.85925761974879    0.37738180751897
C          -0.41094113873733   -1.15175027990632    0.00877209615389
C          -0.83621764714852   -2.53300999846338   -0.01452469035244
C           0.06818156256029   -3.55328673325488    0.30551224865410
C          -0.31783186242513   -4.87143854697803    0.27079930506646
C          -1.63498263236459   -5.21473379873935   -0.06076483749945
C          -2.54376393185164   -4.19394306994200   -0.37940979510881
C          -2.14761966373259   -2.87873600077038   -0.36157105063254
N          -1.93274651307526   -6.55187795984077   -0.14627358223723
N          -3.15744176570183   -6.88512317024836   -0.04840369306442
C          -3.43946577782682   -8.20517117089673   -0.24725519318015
C          -2.63991827591240   -9.28628527644301   -0.69826913272060
N          -3.35415890673529  -10.38641120928941   -0.77853991250666
C          -4.70129233496908   -8.76989956671630   -0.05134360283935
N          -4.58443016290673  -10.06050841968861   -0.37818786302950
N          -5.57812980635113  -11.01791997545136   -0.30171768566429
H          -2.09130328326816    0.11632437030075   -0.61222565861516
H          -0.32835465853364    2.11192563863306   -0.22332186168432
H           1.96069829408063    0.87411892625248    0.58176934209873
H           1.08010359586225   -3.28988433605630    0.57345342384350
H           0.37559612026055   -5.66080079739719    0.51722842726185
H          -3.55110227962310   -4.47119980347442   -0.65246402476263
H          -2.85393682614874   -2.10291131881822   -0.61426436229289
H          -1.60239414050583   -9.27758386356539   -0.96203885287036
H          -5.62018093379893   -8.34153278329039    0.28865956769696
H          -6.23660030140805  -10.93039238160392   -1.07486188245679
H          -5.13319949346814  -11.93112845772227   -0.34784087609241
