30
         -51.663183702354          0.000618023099
C          -1.06650248011928   -0.02805105166936   -0.27101619357374
C          -0.19651817231974    1.02092606346154   -0.12499812258929
C           1.02554576206843    0.41875386983228    0.22192113696260
N           0.90592639974505   -0.88707386897483    0.28140519082666
N          -0.36745439268279   -1.16470988171518   -0.01822971067133
C          -0.81003968460546   -2.48634922097537   -0.04015181244980
C           0.10200905819619   -3.50088863213237    0.26104435300805
C          -0.28977930056156   -4.81787868771906    0.23307116089396
C          -1.61398681585436   -5.15684947611588   -0.07272288012633
C          -2.52426927774164   -4.13393134446862   -0.37137700901009
C          -2.12694807431043   -2.81639219407021   -0.36148666539499
N          -1.91920225918170   -6.49465634870899   -0.15072203183948
N          -3.14644433497181   -6.81648395557867   -0.04490543046892
C          -3.44016895200547   -8.13578261668302   -0.22733473084009
C          -2.64869510119289   -9.22949054890585   -0.66275944788784
N          -3.37191604715307  -10.32436564149487   -0.72875912991818
C          -4.70699949179924   -8.68774996045681   -0.02525010282484
N          -4.59996028028526   -9.98312358207756   -0.33466357447234
N          -5.59945004918078  -10.93277325777645   -0.24415465049755
H          -2.10456653832184   -0.03077235788729   -0.53011562753705
H          -0.40131141278963    2.06435366912629   -0.24756305506329
H           1.96829855450478    0.88596886684047    0.42569674939904
H           1.11412126960155   -3.22118213363622    0.50548915104206
H           0.40743905928901   -5.60785712568301    0.46393915074271
H          -3.53825088288995   -4.40514741939938   -0.62416493938765
H          -2.84478876077185   -2.04824768250856   -0.60374403000318
H          -1.61092019725466   -9.23236591450067   -0.92537773825368
H          -5.62287654677960   -8.24779930884927    0.30810787157196
H          -6.26555712877645  -10.84416253799692   -1.01034007267059
H          -5.16114392185545  -11.84945771927624   -0.28885780896675
