35
         -62.271781067811          0.000411019930
C          -1.10489361424835   -0.00918798214955   -0.27158300731697
C          -0.19930417566607    1.04724838688152   -0.04252449065851
C           0.96070488205707    0.46210423410682    0.36718877465021
O           0.83384926337790   -0.87045473988864    0.40564679931187
C          -0.42866336014164   -1.17287477489302    0.01658030545204
C          -0.83788053433849   -2.55793813737845   -0.03361422292556
C           0.07003519919948   -3.57362571412113    0.29141241551181
C          -0.30348969866020   -4.89501679049175    0.23441405065260
C          -1.61050900990548   -5.24499248138954   -0.12846464689145
C          -2.52192250427424   -4.22845979678305   -0.45540384727752
C          -2.13914805167354   -2.91052421331424   -0.41246170382145
N          -1.89963424934472   -6.58437909520874   -0.21876858057955
N          -3.13270795939535   -6.90608329911333   -0.20642700958485
C          -3.41391821058062   -8.22714062943829   -0.39258282861718
C          -2.58664341689851   -9.34287505279849   -0.71419838344447
N          -3.29756795339898  -10.43526966868798   -0.82402398866877
C          -4.69340435812936   -8.76347535482359   -0.32036928457403
N          -4.57302865472981  -10.08104362033462   -0.58145449533420
C          -5.57838335785783  -11.02401485607741   -0.62078919916921
C          -5.52866711771746  -12.36137031418666   -0.89825344601051
C          -6.86529454510154  -12.81495110991953   -0.78942997690902
C          -7.61307994518841  -11.72911507889425   -0.45822998605845
O          -6.83742574877587  -10.62966576897861   -0.35256828474907
H          -2.11753775063418    0.08431469733847   -0.60539398447568
H          -0.38480982046242    2.09459014500654   -0.16563888340640
H           1.90982010759978    0.87333477719540    0.64946468967212
H           1.07375633635251   -3.30321478949272    0.58232356625695
H           0.39173922191651   -5.68154267743942    0.48485763843770
H          -3.52019033915877   -4.51326467964684   -0.75265004343221
H          -2.84672575774088   -2.13773448833885   -0.67043114995079
H          -1.52639820000629   -9.35303926989008   -0.86435908157624
H          -5.63658553346740   -8.30730897919892   -0.10360781135670
H          -4.65347246817597  -12.92388843830635   -1.14314348330280
H          -7.21542010793940  -13.81506325808908   -0.93919684518808
H          -8.66086856689151  -11.60229718125562   -0.27533957466585
