35
         -61.114205634947          0.000424318608
C          -1.07566572130351   -0.07014314462199   -0.01981272320183
C          -0.29934945285687    1.09900520609154    0.07500850163363
C           1.02627408166892    0.83708611648877    0.21781109781808
S           1.35278787585669   -0.84583999954760    0.24450826009255
C          -0.33920020965490   -1.22553616874864    0.05354166036522
C          -0.78567808741556   -2.59675148475152   -0.00889571401513
C           0.11230849164427   -3.65033959533165    0.20852201743248
C          -0.29649082522062   -4.95915045023617    0.13536032920130
C          -1.63549387132899   -5.26891727700929   -0.14095361385618
C          -2.54037235432225   -4.21766613905732   -0.36086936762288
C          -2.12099439262959   -2.91176737694795   -0.29978480553302
N          -1.94864887272371   -6.59635047794424   -0.26591337714598
N          -3.18130771831747   -6.91302201731953   -0.21055692446783
C          -3.48966395720545   -8.21894556346400   -0.42181326943004
N          -2.62790387511542   -9.25120353884673   -0.71584614653147
C          -3.36167225778404  -10.30373598237805   -0.83507306271068
C          -4.78324121297121   -8.70848743067754   -0.37201045187314
N          -4.69788979783624  -10.04313012959837   -0.63791707735597
C          -5.72450111696594  -10.96494377583207   -0.69915818714785
C          -5.72147251436201  -12.30833922065065   -0.99032266169566
N          -6.98551678454342  -12.79215641867650   -0.92338540046059
C          -7.74666462654212  -11.78810880639501   -0.60247348813865
N          -7.03378230831769  -10.64171832522059   -0.45153671760644
H          -7.38627098803433   -9.73217531137715   -0.20348336781809
H          -2.14443990868145   -0.05034558018998   -0.12926425254422
H          -0.70976042048051    2.09243722905018    0.03860468112471
H           1.83763444915019    1.53133916654884    0.31034057948902
H           1.14471759669173   -3.42075467756887    0.43101682582818
H           0.39458156549324   -5.77048023082535    0.30183518218062
H          -3.56509636812575   -4.46371844758629   -0.59638745004949
H          -2.82917131378477   -2.11858851562885   -0.48453155367828
H          -2.99898015029407  -11.28577957781721   -1.06112735986388
H          -5.69999557866041   -8.19307062783751   -0.17628659128155
H          -4.89943647436620  -12.94577136063268   -1.24100436505116
H          -8.80788290065691  -11.83778006545908   -0.46939120608396
