29
         -52.807081873132          0.000571218385
C          -1.11054116747647   -0.03109868184230    0.01286547110431
N          -0.29339672810113    1.04354591447408    0.04033692863474
C           0.92238880273981    0.56903984164379    0.01588592782694
N           0.93453025602253   -0.78145030621620   -0.01817707497274
H           1.74523662838576   -1.37595497847067   -0.06154850915431
C          -0.37528389261168   -1.20183651811960   -0.02594400753227
C          -0.78532630776917   -2.58387252724070   -0.05762419406832
C           0.12599535225071   -3.62680654196668    0.15650869188691
C          -0.27936461330286   -4.93924687347944    0.10688791943850
C          -1.62050541324762   -5.25935731952603   -0.14194204155053
C          -2.54007680328674   -4.21724458803040   -0.34985984536618
C          -2.12594126169793   -2.90960471353061   -0.31150483640954
N          -1.92196421966279   -6.59344009096753   -0.22340374212171
N          -3.15684501777386   -6.90793147118657   -0.21914733397605
C          -3.44964686752749   -8.22601811832371   -0.37835166267289
N          -2.56591195850062   -9.24929139889499   -0.67147461015028
C          -3.26267412265637  -10.32053222441984   -0.75517192024628
C          -4.72731885039648   -8.73542059243672   -0.29115266191646
N          -4.61105999948046  -10.08303635126192   -0.52850040926998
C          -5.58439015624714  -10.98132885727859   -0.53840249809005
N          -6.41045210213193  -11.77345413245569   -0.55363093463805
H          -2.17363032581878    0.09619735501252    0.03724986490443
H           1.81260321046279    1.16577033629052    0.02200021109976
H           1.16224348930133   -3.40867370912675    0.37256081394442
H           0.41838224849003   -5.74554165204909    0.27120933483545
H          -3.56840284649134   -4.47291490724461   -0.55591582850343
H          -2.83419831538831   -2.11496332385232   -0.48737105052790
H          -2.88880452929415  -11.30144534612520   -0.97320374095936
H          -5.66406448878868   -8.26386822337439   -0.07989826154849
