30
         -51.209717453927          0.000901700913
C          -1.09858372905606   -0.08070860059382   -0.06444701651837
C          -0.32982710806558    1.09547918592353    0.00862570460671
C           0.99668484609830    0.84543533931068    0.15913274663319
S           1.33348182413280   -0.83530143291214    0.22023646184097
C          -0.35550229059736   -1.22951631216306    0.03319819845910
C          -0.79316427764890   -2.60490245174668   -0.00128797935370
C           0.11217074124336   -3.64817801987226    0.23417736551104
C          -0.28805755752443   -4.96087995403000    0.19087159126187
C          -1.62649887703020   -5.28576784127011   -0.07005567951808
C          -2.53803541229054   -4.24507406991653   -0.30975882944077
C          -2.12686793585719   -2.93512644476840   -0.28001586169426
N          -1.93644764550627   -6.61550833828543   -0.17724520670488
N          -3.15856462314955   -6.94536509207874   -0.04554253800236
C          -3.47608869614967   -8.24891474445068   -0.25216203517652
N          -2.64076468848340   -9.26827614136195   -0.62798482393114
C          -3.38617953086487  -10.32476415894484   -0.71350606112717
C          -4.76853767103358   -8.74436192164723   -0.11657109442449
N          -4.69030985715682  -10.05888913329300   -0.41912257931147
N          -5.72619155018798  -10.98352791986943   -0.33997879099074
H          -2.16782551474440   -0.07026512450045   -0.17865151641649
H          -0.74684826804419    2.08549509357212   -0.04910665148324
H           1.80381677382335    1.54585195372036    0.23955301152049
H           1.14411287372421   -3.40745108674367    0.44723268420547
H           0.40984252408038   -5.76315364107424    0.37262115237212
H          -3.56233870906267   -4.50312850110133   -0.53440365552188
H          -2.84177721640360   -2.15117744181063   -0.47833708323298
H          -3.04434744924834  -11.30442987136932   -0.98440258175294
H          -5.68169750548888   -8.25931491498944    0.15702890292942
H          -6.60501550398136  -10.55739007128712   -0.62084572083845
H          -5.52032796552611  -11.78454834244635   -0.92992211390072
