28
         -52.796132144221          0.000428751017
C          -1.10611595826757    0.00748775138145   -0.28805968028400
C          -0.20471402951644    1.06731659313656   -0.06048471958159
C           0.95512294481729    0.48724518506080    0.35805583150607
O           0.83168408638343   -0.84483445717927    0.40358216378854
C          -0.42808306673486   -1.15325126952817    0.00994444824622
C          -0.83312469956659   -2.53927765480007   -0.03065782314338
C           0.07917289239961   -3.54938526387533    0.30214065231605
C          -0.28993497179797   -4.87178353379836    0.25642379058410
C          -1.59826768685812   -5.23010027352535   -0.09849206752723
C          -2.51393376043922   -4.21860275627399   -0.43386090779876
C          -2.13390125606104   -2.89948498580248   -0.40613953833420
N          -1.87465915624895   -6.56919387889788   -0.17457899072594
N          -3.09865833719345   -6.91378444857483   -0.14075153784349
C          -3.37132264054752   -8.23667515207089   -0.31173680447233
N          -2.48448426273542   -9.23401370368482   -0.64689636009960
C          -3.16847929776810  -10.32864616391024   -0.72355576522627
C          -4.64317684262557   -8.77120796485384   -0.18648943381609
N          -4.47356474933592  -10.08572969386111   -0.44790485581149
F          -5.48137651996522  -11.01219388786256   -0.43877909953958
H          -2.11719128358288    0.09594615028809   -0.62789543982275
H          -0.39214972057581    2.11352305445414   -0.18974042224884
H           1.90147303899555    0.90311651906521    0.64287313587240
H           1.08245731936723   -3.27254241372324    0.58831787750799
H           0.40599632291992   -5.65606237707764    0.51033224340614
H          -3.51141759369097   -4.50864727677496   -0.72841492532419
H          -2.84289034919341   -2.13071880647524   -0.67206333795769
H          -2.78994873326957  -11.30014294151618   -0.96773638462741
H          -5.58685168890865   -8.33580634931977    0.06147795095727
