31
         -51.443935832096          0.000867651409
C          -1.10955047312356   -0.04405467824023   -0.25604191853700
C          -0.27039398341635    1.02474384459705   -0.07536071065445
C           0.96035948333427    0.44850659772954    0.28400253610752
N           0.87424436273730   -0.86150993377553    0.31796371468063
N          -0.38525792160652   -1.16650146714586   -0.01053370748501
C          -0.79770386642284   -2.49753223674420   -0.05914098904705
C           0.12257618404948   -3.49792135200876    0.26503740364443
C          -0.24564380705860   -4.82159786021020    0.22158161997801
C          -1.55545957189805   -5.18261583833509   -0.12157517071965
C          -2.47125427900481   -4.17308292033198   -0.45176542724763
C          -2.09653422618633   -2.84938566938743   -0.42790061966020
N          -1.84151579524938   -6.52176132219309   -0.21080877243690
N          -3.06453705608814   -6.85577624862038   -0.11695105995258
C          -3.37927492775071   -8.16229711916951   -0.30708793368562
N          -2.54627552902456   -9.18790070744842   -0.68470960212921
C          -3.29605057975482  -10.23912887643154   -0.75309625074484
C          -4.66619350619667   -8.65854191659334   -0.15552097438723
N          -4.59965388861536   -9.98032860878204   -0.43955025754565
C          -5.67895013072620  -10.92639173274750   -0.42548113013773
H          -2.14300426883048   -0.06836450765178   -0.53214060968643
H          -0.50145554037679    2.06446892710959   -0.18319655948086
H           1.88615282432309    0.93746654613678    0.51341885356427
H           1.12209902753198   -3.20148453501118    0.54044312013571
H           0.45639753403557   -5.60179222886231    0.46980696990518
H          -3.47102193390325   -4.46079911545538   -0.74024670592270
H          -2.81747509493251   -2.09265886280212   -0.69572969760308
H          -2.95525718280826  -11.21915550474326   -1.02500590399967
H          -5.57257824715741   -8.16613905644713    0.12945731972927
H          -6.59631127134084  -10.42621901665770   -0.12058120429636
H          -5.46487546372741  -11.73564611483980    0.27561729675532
H          -5.82136087081187  -11.35524848493730   -1.41977362914060
