35
         -61.114861077602          0.000582272448
C          -1.07985951634894    0.00110223144375    0.02575727989351
N          -0.25893542905533    1.07494759683051    0.04587264198806
C           0.95481959890649    0.59648692402974    0.02160383665396
N           0.96221039169435   -0.75502737545339   -0.00414838697293
H           1.77016977595367   -1.35351731509594   -0.04528015584736
C          -0.34881227363501   -1.17091691170680   -0.00682587328363
C          -0.76156306610711   -2.55379693325914   -0.03408937248958
C           0.14182185307995   -3.59648484463562    0.20891478933084
C          -0.26391833370224   -4.90930466517903    0.15867157758477
C          -1.59906208101614   -5.22974209038517   -0.11709572280173
C          -2.51013394637295   -4.18745815779064   -0.35365043301576
C          -2.09527672572578   -2.87928716846780   -0.31586427990874
N          -1.90721922144098   -6.56231590332490   -0.21946157583825
N          -3.14130386802664   -6.87249210569752   -0.16452058046289
C          -3.46372443886764   -8.17660448776379   -0.35516054439162
N          -2.61658383238572   -9.21835846697041   -0.66729767955227
C          -3.36419495134738  -10.26249557832962   -0.76423928106708
C          -4.75996621541932   -8.65359813542899   -0.27155308856173
N          -4.69279707920855   -9.98971047101036   -0.53313685378434
C          -5.73688577439197  -10.89278234928021   -0.56144029883144
C          -7.05823583630967  -10.66303496496756   -0.30372629769626
C          -7.84047775590545  -11.83091169599583   -0.42970128004463
C          -7.11305029332729  -12.92088246518010   -0.77763607091862
S          -5.44178057335780  -12.55789231779968   -0.96450126492382
H          -2.14278757731313    0.13104755014703    0.05168887386390
H           1.84748255485272    1.18979803135627    0.02227795234149
H           1.17311545990123   -3.37783652239422    0.44865303226021
H           0.42960951847919   -5.71450183429310    0.34555978684011
H          -3.53336293022044   -4.44403985282077   -0.58323416340071
H          -2.79822374835097   -2.08495636938483   -0.51463419257519
H          -3.01962089199179  -11.25096720405262   -0.99828216652167
H          -5.67075661648813   -8.13943841686516   -0.05226348757932
H          -7.46161404995666   -9.70500470658836   -0.03359648710787
H          -8.90244639695151  -11.85130883850021   -0.26574871746871
H          -7.44825572964236  -13.92550418518560   -0.93879151571052
