25
         -42.209589509101          0.000348918881
C           1.37766429534390    0.32200773541164    0.73868727158765
O           2.41459265645842    0.17382666774254   -0.20094992525735
C           2.91799023183695    1.28296075599530   -0.80198441913204
C           2.48752526235761    2.58703112248452   -0.56332153755009
C           3.06553505395281    3.63828984990444   -1.24432352417607
C           4.09511363216425    3.42076008357870   -2.16349383346277
C           4.52538750602142    2.10342219664748   -2.39638463895409
C           3.94188664850185    1.05618445890315   -1.73066130033406
N           4.57883586352322    4.52945320795029   -2.81766806362503
N           5.64308700247026    4.36648447041742   -3.49884477003899
C           6.09813463829039    5.43826296310318   -4.20266911558842
N           5.49918567919059    6.66859480843537   -4.34262341711957
C           6.27656605639396    7.35508729451642   -5.11238881532619
C           7.27713707178914    5.42123881825392   -4.92905752923944
N           7.37790454891060    6.64900074673683   -5.50041417131061
H           8.12582859261192    6.96742588368251   -6.09518215775049
H           1.13973734307112   -0.68579777405787    1.07572810833082
H           0.48739869435349    0.77189309051330    0.28774501795708
H           1.69544322501438    0.92402877031320    1.59603442602971
H           1.70031244986325    2.78878559793451    0.14639035449008
H           2.73910171981516    4.65169749859796   -1.07009883008227
H           5.31237367385464    1.93937437897456   -3.11652411300717
H           4.25265170944582    0.03725898322925   -1.90359520175985
H           6.09629362407719    8.36458737905194   -5.42574285048155
H           8.00767282068726    4.65085101168034   -5.05806696420005
