25
         -41.819174934210          0.000363065616
N           1.25158428674093    0.03194260733875    0.08543954134735
C           2.61967821545864    0.02897533310071   -0.03088327083340
C           3.32593293144061    1.23033436304624   -0.15879761146256
C           4.69806328703831    1.23042554489772   -0.22787593866968
C           5.41781377842633    0.03033209553220   -0.15270598271061
C           4.70699124846708   -1.17373227721136   -0.01780529820333
C           3.33556449102467   -1.17289401221774    0.03412654563661
N           6.78119193169067    0.12479496969400   -0.27260414760702
N           7.45067114907749   -0.93057108886984   -0.01011903802062
C           8.79587242827445   -0.87226974092591   -0.19292028351221
N           9.52593167197132    0.13832172695105   -0.76249561908644
C          10.75822292528447   -0.26680788604131   -0.75703512182983
C           9.65028704372550   -1.91048782539713    0.15684069084254
N          10.88899284507572   -1.50596490973465   -0.20969651493718
N          12.07969512181143   -2.19137558976118    0.02255423929065
H           0.76342749527107    0.86171323254075   -0.20665688427098
H           0.77061308583844   -0.83730528394381   -0.07313357613473
H           2.77567258681374    2.15964350850046   -0.20875529341293
H           5.24919712534308    2.15177400657932   -0.33311891214948
H           5.26621036858850   -2.09603940069983    0.02636604920113
H           2.79089511634252   -2.10304531769209    0.12489572130564
H          11.59444337537537    0.28599780555183   -1.13858671743951
H           9.45838479538532   -2.85274728544273    0.62507636177810
H          11.92979778041110   -3.19298761813835   -0.06480852936694
H          12.78477491512302   -1.88696695765739   -0.64287040975433
