28
         -48.631904321547          0.000287000262
C          -1.10945431374813    0.00348574422519   -0.29437854078759
C          -0.20929726663941    1.06429175696731   -0.06262266596125
C           0.94884225446637    0.48531662857584    0.36020594068883
O           0.82558220813550   -0.84767078120785    0.40509294580840
C          -0.43248861277293   -1.15643538059544    0.00642244158574
C          -0.83688781091870   -2.54339784095185   -0.03489544072010
C           0.07179033815336   -3.55209612235872    0.31091551851672
C          -0.29580755240695   -4.87496990255844    0.26661843123046
C          -1.60008992544029   -5.23618599042332   -0.09887171509342
C          -2.51124677276905   -4.22641124680114   -0.44902303973445
C          -2.13226984026287   -2.90634035672073   -0.42309064089979
N          -1.87679864353774   -6.57461063101132   -0.18831118647471
N          -3.09419948130307   -6.92963524068027   -0.10442353495948
C          -3.37168439749636   -8.24818614783311   -0.29368386470829
N          -2.49812516613212   -9.24607247016364   -0.65770096117920
C          -3.20331539065267  -10.32561296642911   -0.72664794350026
C          -4.64077660075808   -8.78437255895758   -0.14883602757366
N          -4.51682241811229  -10.10700759329944   -0.42568577733499
H          -5.25768413845983  -10.78935647856935   -0.41081657892782
H          -2.11936838513387    0.09178252916256   -0.63774314707973
H          -0.39697926444936    2.11046232261415   -0.19263162020280
H           1.89422919253502    0.90087092472329    0.64861996088589
H           1.07210316677208   -3.27403285402268    0.60647664826104
H           0.39892182800158   -5.65689341014492    0.53124368999017
H          -3.50551392169011   -4.51799898396435   -0.75337761058886
H          -2.83947903758749   -2.13944129280684   -0.69964975869721
H          -2.82238962555852  -11.29302517404575   -0.98869451623067
H          -5.56665042223422   -8.32361648272221    0.12386899368703
