28
         -52.434862537364          0.000632636460
C          -1.09558343754647   -0.03242343403753   -0.25585462557707
C          -0.25168999557223    1.03186986231043   -0.07816996046280
C           0.97842960004895    0.45055407777180    0.27975357859253
N           0.88712523342331   -0.85778339620146    0.31733766529111
N          -0.37529173582202   -1.15886038087131   -0.00860788229311
C          -0.79153929550371   -2.48663960706225   -0.05241118251852
C           0.13211090112951   -3.48913484272717    0.25781858288072
C          -0.24004675609316   -4.81148960464261    0.21973582635938
C          -1.55646515649915   -5.16846621568179   -0.10382178118782
C          -2.47606320602928   -4.15704008979553   -0.42039932836440
C          -2.09765044258024   -2.83510224511489   -0.40261751735115
N          -1.84372203082115   -6.50803748888896   -0.16626233025262
N          -3.07091318241452   -6.83537512836456   -0.10756756347859
C          -3.36975920412493   -8.15402361203737   -0.26135415304501
N          -2.51065689746695   -9.16859861348826   -0.61544909999489
C          -3.21647875150183  -10.25048365901863   -0.66980080200231
C          -4.64779541826760   -8.66444302195391   -0.10022830682169
N          -4.50911064569363   -9.98239553144835   -0.35971185832523
F          -5.53224880301800  -10.89023272004646   -0.32198889842710
H          -2.12912752142517   -0.05268126795188   -0.53137621303996
H          -0.47746453863657    2.07254880707450   -0.18733696823968
H           1.90621199853068    0.93667022680771    0.50707727057233
H           1.13581440611115   -3.19394000267652    0.51843703965317
H           0.46225600295385   -5.59469277158434    0.45718528440082
H          -3.48033901986830   -4.44327111870377   -0.69376932522401
H          -2.81974657149548   -2.07615213672274   -0.65986776049865
H          -2.86279953143430  -11.22946498298718   -0.92081623641200
H          -5.57665600038260   -8.21210110195691    0.17230654576649
