28
         -48.284630965238          0.000895730420
C          -1.10790858997011   -0.01250478513498    0.01139689498282
N          -0.29048679722144    1.06426844016435    0.02901332450039
C           0.92491114233399    0.58970939350455    0.00149585924628
N           0.93669184379646   -0.76165653942158   -0.02463823628219
H           1.74503694400971   -1.35936717974907   -0.06947299274716
C          -0.37322703879129   -1.18170372980812   -0.02370032630288
C          -0.77909741191621   -2.56715200721271   -0.04622500856221
C           0.12801497214014   -3.60160803566049    0.21671042157188
C          -0.26761974411158   -4.91733555999160    0.17127250163312
C          -1.59767586365379   -5.24972476630407   -0.11498628835199
C          -2.51261763825529   -4.21584156766452   -0.37122309929210
C          -2.10647260353496   -2.90424022906153   -0.34193596445752
N          -1.89468371490953   -6.58375794927723   -0.22089068683725
N          -3.11512165734021   -6.92211120016266   -0.10877825524700
C          -3.41313764816649   -8.23453592623094   -0.30912274948371
N          -2.55411562646807   -9.24173439435819   -0.68185604818231
C          -3.27437117084182  -10.31077886475387   -0.75666343346052
C          -4.68922538416020   -8.75415835258324   -0.16506069934219
N          -4.58436760706457  -10.07597383211915   -0.45257097752271
H          -5.33484713092214  -10.74775492444849   -0.43960780670567
H          -2.17128013334709    0.11294949618001    0.04113264236677
H           1.81570297160699    1.18585583289454   -0.00008354501801
H           1.15447346987386   -3.37407760730498    0.46865278138320
H           0.42937078658326   -5.71572097975451    0.37384554400520
H          -3.53131355414268   -4.48125571199980   -0.61142630322201
H          -2.81232043155965   -2.11674943213024   -0.55717580463910
H          -2.90745092531979  -11.28176184588221   -1.02543163570655
H          -5.60768145864779   -8.28052774172919    0.11067989167315
