23
         -38.379944853709          0.000935342991
H           1.08546046931834    0.05444790863421    0.21492956761211
C           2.15530092500424    0.01993767383766    0.07005024869066
C           2.96888286804819    0.96539778832898    0.67808868186221
C           4.33413122444875    0.93546279071190    0.48440073890886
C           4.90796567564343   -0.06609133070501   -0.30631438670776
C           4.07986110325071   -1.01633708532180   -0.91797267424386
C           2.71461550507467   -0.96461975114878   -0.73136864249382
N           6.26802490973094    0.00130796415005   -0.51147792345803
N           6.84942478172708   -1.07674322761414   -0.84822841503118
C           8.17396400469455   -1.01479243715521   -1.14078454919783
N           8.97480162900085    0.09482228433959   -1.20421827193059
C          10.15449120950954   -0.33677888620529   -1.52312981227062
C           8.93166086864504   -2.14249580486756   -1.43779031766569
N          10.18387939627001   -1.69179949728623   -1.66914471298840
N          11.27017079582991   -2.45361561325688   -2.08605276658662
H           2.52988357316292    1.73286384166588    1.29906371460476
H           4.98327316425919    1.66204305499933    0.94790705645271
H           4.53517773608237   -1.76858341189458   -1.54483830623437
H           2.07755660147434   -1.69467834002325   -1.21039092992893
H          11.02386789293599    0.27604054660149   -1.65891880314636
H           8.66056737309298   -3.17614757186877   -1.48509584285180
H          11.20934739221898   -3.39315423875598   -1.70363091187970
H          12.13726090057690   -2.01176665716563   -1.79361274151574
