28
         -48.632373482169          0.000842934579
H           1.15710770378359    0.23397125512353    0.05374252973757
C           2.22764334715731    0.17254035607711   -0.07572530379835
C           3.04367595075881    1.18648639635147    0.40548101122273
C           4.41020702171669    1.12018079033770    0.23042692539913
C           4.98148944421845    0.01572842252990   -0.41150768952244
C           4.15053786060880   -1.00359506249245   -0.89575024430244
C           2.78456424497710   -0.91672770717376   -0.73033062055084
N           6.34417347034117    0.04562726145870   -0.60293619038660
N           6.91703424873856   -1.06888977394858   -0.81556191426249
C           8.24963406398452   -1.04436448747094   -1.08220419470118
N           9.06023520925061    0.06097926468002   -1.22561666362908
C          10.23825352817259   -0.39341473470463   -1.47952099270138
C           9.00393958320860   -2.18939768515111   -1.26376489352989
N          10.27583817352287   -1.76917821506467   -1.51610956305901
C          11.38210852803476   -2.55794507406254   -1.75989373502040
C          11.52749160962452   -3.91643468249734   -1.81915990337303
C          12.89715990668683   -4.13762369640356   -2.10332406179432
C          13.47123526339767   -2.90968691508950   -2.19350305649520
O          12.55706407819573   -1.94067151960850   -1.98601446620986
H           2.60569907244312    2.03431947508462    0.91187028464014
H           5.06258306237745    1.89803791147003    0.59547601992596
H           4.60522081537948   -1.83765496299994   -1.40922923492215
H           2.14485866716423   -1.70069662953428   -1.10998656643202
H          11.11294227846303    0.20218589297960   -1.64855501135830
H           8.72371903875596   -3.21998480080524   -1.22605254693810
H          10.76949262303509   -4.65799213656069   -1.68052328366453
H          13.37892068232536   -5.08558673327677   -2.22215530561806
H          14.47558052367697   -2.59502220924805   -2.39127132865599
