22
         -39.497131551842          0.000834685268
H           1.10763925914579    0.15766506358593    0.13050973982494
C           2.18517092665402    0.13887418590798    0.05940486329005
C           2.89451289975281    1.32886867981294   -0.02197620020859
C           4.26961932276736    1.31025510984930   -0.12717884760176
C           4.95463409566367    0.08923340807722   -0.12722603542024
C           4.23075042106066   -1.10895818111476   -0.04498971502580
C           2.85567879979835   -1.07658737830472    0.04181905866724
N           6.31986882324465    0.15234114302060   -0.28025958563164
N           6.98223847737614   -0.88152405386444    0.04513964865688
C           8.32386255542284   -0.84985011751637   -0.18007226729566
N           9.03658163302068    0.11570698948031   -0.86795240269641
C          10.26050088178199   -0.26076686364915   -0.86216118201550
C           9.18429216881534   -1.83946588325230    0.24324380370375
N          10.43165251729721   -1.46238032995015   -0.18821144155344
C          11.57237850089321   -2.10968578462324   -0.00147759220093
N          12.56696179673015   -2.65459263967417    0.15102781512963
H           2.36706248766292    2.27126720170863   -0.01042692160532
H           4.84262581912013    2.22203699775104   -0.19183441931436
H           4.77362149369373   -2.04187710048279   -0.06970522793412
H           2.29709096133432   -1.99975622337719    0.09693924664455
H          11.08357353656115    0.25832002937578   -1.31207103922239
H           9.01084262220297   -2.73561425276052    0.80142870180917
