29
         -52.793131783372          0.000692564138
C          -1.11757059532323   -0.06551886141334   -0.25953257973447
C          -0.27065469957483    0.99465024850212   -0.07584924040255
C           0.95848618167112    0.40733909077425    0.27843856509950
N           0.86350637084900   -0.90037040860567    0.30811319635338
N          -0.40017079868946   -1.19609478305453   -0.01951896444495
C          -0.81981819064404   -2.52124382189030   -0.06892178345259
C           0.10173355793072   -3.52782761039661    0.23585859563710
C          -0.27448892496157   -4.84866930586445    0.19374763181625
C          -1.59255111399579   -5.19977029682794   -0.13075850602353
C          -2.51048552056720   -4.18426231605387   -0.44159772883258
C          -2.12827869394410   -2.86409079338978   -0.41831754845171
N          -1.88309288565859   -6.53785941463234   -0.19223097404455
N          -3.11443125584910   -6.85822098502596   -0.17411695529443
C          -3.41561370517528   -8.17402756999165   -0.33145220400506
N          -2.55460347101583   -9.19714455681554   -0.68541472263712
C          -3.26244256245778  -10.26226020090479   -0.75467642602180
C          -4.69132750034713   -8.67707713248852   -0.19106236547922
N          -4.59643215924331  -10.02058777020297   -0.45680690048959
C          -5.57923748044058  -10.90920488921521   -0.44086042717326
N          -6.41616039949038  -11.68966579837922   -0.43200094979420
H          -2.15112410466963   -0.08111060115661   -0.53527238652285
H          -0.49302493744692    2.03659996814894   -0.17830328408938
H           1.88761697612445    0.88946781847261    0.50827044238507
H           1.10660316893410   -3.23642710769649    0.49606238934553
H           0.42572352414388   -5.63498465451531    0.42701978255167
H          -3.51625494855648   -4.46617033377731   -0.71397153741954
H          -2.84833495298241   -2.10174459492579   -0.67091043839527
H          -2.90668251166381  -11.24087748836308   -1.00996697273989
H          -5.61279836695569   -8.20401583031044    0.07696229226006
