32
         -55.867031939452          0.000531434173
C           1.51856339915295   -0.33500478894125    0.47323030474580
O           2.58866881513051    0.39797217826394   -0.07322899623460
C           3.05591056914721    0.05934985280070   -1.30211049346021
C           4.11921855327938    0.83349443315822   -1.78197518664406
C           4.66240976952781    0.58353177717739   -3.01745440619886
C           4.17260690477372   -0.46450221938338   -3.80999190319366
C           3.10854061539596   -1.23504315072588   -3.32447774882436
C           2.55238498816391   -0.97530807080715   -2.09094422888264
N           4.75637343123301   -0.62596814698924   -5.04355913811386
N           4.46610841566094   -1.69563985380391   -5.67423354023441
C           4.99739719091597   -1.84409701189300   -6.91562997853252
N           5.74971732579156   -0.93041097558738   -7.62396159862908
C           6.02511582090587   -1.49251538251114   -8.74938937638106
C           4.83375580650923   -2.98585175600061   -7.67780607614355
N           5.49573990181130   -2.75917880346393   -8.84940893142348
C           5.60936387257878   -3.62603229637095   -9.91649284573347
C           6.25807188061759   -3.49888572845713  -11.11384965845819
C           6.02275631585210   -4.71392691683245  -11.80210728096569
C           5.25761871410271   -5.47689039211698  -10.97891528422208
O           5.00010488922978   -4.82330657218937   -9.82797341745419
H           1.32255617011348    0.11181680375497    1.44669247480420
H           1.77977111206355   -1.38971995517776    0.60588308139894
H           0.62011156849949   -0.25724441948156   -0.14734192879577
H           4.49054098859563    1.62949312310522   -1.15568742237746
H           5.48016461432337    1.17544637830195   -3.39688355759245
H           2.72517762328763   -2.03080009429879   -3.94517018671056
H           1.72694020914698   -1.58025416765587   -1.74813775566509
H           6.59823559982716   -1.04660553014387   -9.53696131973481
H           4.32224272886896   -3.90208232077035   -7.47257691009884
H           6.82476722650335   -2.66082452734852  -11.45966169903714
H           6.37909258135805   -4.97449111002950  -12.77685239933252
H           4.84446239763405   -6.45942035558405  -11.08246259187448
