35
         -61.580389765109          0.000622721901
C          -1.08504647410628   -0.03492758156054   -0.25851693784412
C          -0.23336857922143    1.02179238492117   -0.06941861267972
C           0.98449640387301    0.42911350310981    0.30876139551016
N           0.87944274731894   -0.87851544405512    0.34591064203598
N          -0.38017287070056   -1.16735654288229    0.00038190320419
C          -0.80589929207224   -2.49292849462036   -0.05382275934443
C           0.10722796356548   -3.50222050590698    0.26376849246487
C          -0.26964072635500   -4.82257722720160    0.20803120391027
C          -1.58096613094374   -5.17130394737380   -0.14267854985314
C          -2.49153548241735   -4.15254547926402   -0.46003101287753
C          -2.10860722071368   -2.83181371014594   -0.42284689393795
N          -1.86957566076732   -6.50910719194945   -0.24012678703351
N          -3.09876831060632   -6.83645025796745   -0.20094402727837
C          -3.40174735940063   -8.14679698022695   -0.38823656204749
N          -2.54713925497784   -9.17721410065362   -0.70735796436849
C          -3.28121574153315  -10.23237948068296   -0.79744700294735
C          -4.69169639623939   -8.64020344212481   -0.29268694080071
N          -4.61095137378632   -9.97539227151285   -0.55291590077870
C          -5.63626002347784  -10.90065636923361   -0.57199255513261
C          -5.64141700233002  -12.24408517227518   -0.86311027853015
N          -6.89991229983928  -12.73160239620627   -0.74279105836978
C          -7.65004302422000  -11.72971821809188   -0.39060177976633
N          -6.93510468106181  -10.58120136157800   -0.26978445144905
H          -7.27983291027923   -9.67298868288254   -0.00641410494686
H          -2.11403372176623   -0.04620077178928   -0.55140952307312
H          -0.44684213174493    2.06445609400295   -0.18369281352522
H           1.91422062839669    0.90485264933262    0.54954876354084
H           1.10793349629776   -3.21400840118054    0.54267286775811
H           0.42617351726967   -5.61044639763470    0.44903797836188
H          -3.49269178039878   -4.43188695722115   -0.75152343558712
H          -2.82514137905507   -2.06748174992074   -0.68068478556449
H          -2.92487711475734  -11.21423296753469   -1.03436453175496
H          -5.60092523194185   -8.12493271756551   -0.06377215592411
H          -4.82851036306869  -12.87875984142839   -1.14807155130936
H          -8.70456221893873  -11.78308996869415   -0.21308027006068
