21
         -39.138893554380          0.000580683107
H           1.11005674992136    0.10241745707220    0.16996086427265
C           2.18747660897664    0.09056704780207    0.09423548577398
C           2.88977626148856    1.28506556181717    0.01732709554998
C           4.26465961706934    1.27556151050188   -0.09405425123653
C           4.95784161819961    0.05946782688214   -0.10334272088177
C           4.24123460250828   -1.14297256313267   -0.02660123496421
C           2.86582353539427   -1.12001776232441    0.06558810058288
N           6.32214926893371    0.12903685853528   -0.26711717899666
N           6.99484890507541   -0.88854224977297    0.08414581216628
C           8.33666037944640   -0.85334193407924   -0.14823103122322
N           9.03897283995941    0.10910129796431   -0.83626019254680
C          10.27778628717564   -0.26104632939811   -0.83166549394328
C           9.20605308270824   -1.84182693316506    0.28257969347580
N          10.41386825555684   -1.43210133727691   -0.16150245882318
F          11.58331807858334   -2.11407801743334    0.03920934269776
H           2.35677317851233    2.22443714759751    0.03685487335543
H           4.83135379202649    2.19153894379530   -0.15573467602842
H           4.78986564656582   -2.07234422302026   -0.05972038992929
H           2.31338321561391   -2.04732840209536    0.11671538769834
H          11.09887565438531    0.25768015662670   -1.28262809112310
H           9.05686242189903   -2.73967405689623    0.84241106412335
