30
         -51.245085616160          0.000397176388
N           1.07724661918902    0.16779911619053    0.31873400935814
C           2.42964767046736    0.12350566922691    0.09813339997015
C           3.27856453356356    1.06876961428504    0.68625156460548
C           4.63808023262286    0.99308640393647    0.50726338610287
C           5.20259308776132   -0.03946405800153   -0.25475461095531
C           4.34868576266570   -0.98915302708361   -0.84173853438462
C           2.99023023955358   -0.90410794896734   -0.67230639730511
N           6.56550497479758   -0.01705942103976   -0.39505555296978
N           7.09899799768837   -1.03333204025919   -0.95640876434911
C           8.44308203165681   -0.99521596272907   -1.14901919662181
N           9.28891145285970    0.07956411208280   -0.96941958350122
C          10.46283955772466   -0.33731110320719   -1.29716472903093
C           9.17347630028660   -2.07672926072985   -1.60370797254461
N          10.47004522119687   -1.65427129542287   -1.69164715222006
C          11.56804472828581   -2.39232508976721   -2.08121138621399
C          11.62892846035791   -3.72368684926731   -2.37916350605608
C          12.93120442591633   -4.13639100706613   -2.73450090976226
C          13.83439706394850   -3.12611678422409   -2.70365286577727
S          13.12275331745145   -1.62924043287219   -2.23851734756621
H           0.68944726290074    1.02800244712229    0.66774227771332
H           0.48595221498024   -0.36311184378305   -0.29811540584987
H           2.84806245858976    1.86228204544471    1.28085718364431
H           5.29941034537700    1.71973994526203    0.95247770778584
H           4.78903890244859   -1.77451584369781   -1.43709195711658
H           2.33447357341580   -1.63041834827480   -1.13302244133961
H          11.35821014600466    0.25330630432435   -1.27612480286847
H           8.86045664720885   -3.06909347841659   -1.84662217446546
H          10.78481979286606   -4.38683192273815   -2.34317728280023
H          13.17849450056756   -5.14823507506043   -2.99980454416033
H          14.88242047764695   -3.15736486526680   -2.92331241132062
