30
         -51.689767000868          0.000677134420
C          -1.11284727767480   -0.00818659979962   -0.01060109318479
N          -0.29931100904244    1.07195018588110    0.00795856109277
C           0.91758779777789    0.60177295190451   -0.00324960026406
N           0.93447225075476   -0.74992958012944   -0.01812311426545
H           1.74653368631279   -1.34355452003719   -0.04659744810360
C          -0.37365436185675   -1.17510253785092   -0.02718211925973
C          -0.77510276782721   -2.56208459585278   -0.04361846792722
C           0.13751570544654   -3.59459281098944    0.20712273721658
C          -0.25617452887455   -4.91134678099006    0.16954184651924
C          -1.58899676750052   -5.24736873976397   -0.09807219001564
C          -2.50883827442761   -4.21540662339236   -0.34407953453892
C          -2.10543285834739   -2.90292983403754   -0.32114712728045
N          -1.88547565575770   -6.58296193324972   -0.19406396937798
N          -3.10959892582279   -6.91461938343385   -0.08317250302837
C          -3.41961891206671   -8.22257932938567   -0.26999319263335
N          -2.57816080741413   -9.24572475983067   -0.62106944692746
C          -3.32003499562675  -10.30563855234332   -0.69530909979944
C          -4.71227181566620   -8.71925220508085   -0.13906066162963
N          -4.62767501137195  -10.03842514115547   -0.41743325459500
N          -5.65873644911334  -10.96708217006522   -0.32868401634327
H          -2.17689770982616    0.11450778511999    0.00515922113163
H           1.80644488970371    1.20084838254643    0.00062841216891
H           1.16763648600228   -3.36538919291385    0.44230719959563
H           0.44534863455259   -5.70806022057515    0.36284602635896
H          -3.53051836841814   -4.48289804494233   -0.56883789175316
H          -2.81645737361231   -2.11746071754066   -0.52672221453991
H          -2.97403723282203  -11.28851049431133   -0.94858354614619
H          -5.62828756852996   -8.23085073844197    0.11912475602899
H          -6.54634687978929  -10.53486406993860   -0.56890722292104
H          -5.47253389916194  -11.75362972940021   -0.94419104557812
