28
         -52.448733286924          0.000659596011
C          -1.10262066157358   -0.00866387672664    0.03878570511084
N          -0.28607382923658    1.06764481657136    0.05574596150580
C           0.92923812886963    0.59502653593398    0.00810197514169
N           0.94224998346120   -0.75565073083075   -0.02803982073726
H           1.75133004941426   -1.35058527576663   -0.08875658163718
C          -0.36694256670553   -1.17735782732871   -0.01459539842595
C          -0.77339307180562   -2.56142564644994   -0.04196498489591
C           0.13650138277438   -3.59851137486676    0.20186246974950
C          -0.26241691147231   -4.91311536324291    0.15422181178053
C          -1.59687730772268   -5.24067234667428   -0.11828877295133
C          -2.51469019529328   -4.20439753889392   -0.35625127196925
C          -2.10607511976390   -2.89422938383941   -0.32236672086841
N          -1.89392352159284   -6.57576182287127   -0.20608282430289
N          -3.12300789677718   -6.90127430860510   -0.15469571857608
C          -3.41376421788469   -8.22037646292865   -0.32423454960048
N          -2.53559143685202   -9.22975476507806   -0.64494939674185
C          -3.23121648219785  -10.31684283524699   -0.72085104480350
C          -4.69270503237689   -8.73934042305850   -0.20673462551750
N          -4.53597561243098  -10.05714490806080   -0.45954451709990
F          -5.55353416733892  -10.97227301956207   -0.45228286974233
H          -2.16539236710253    0.11570395419179    0.08348284697921
H           1.81882607029327    1.19273667826599   -0.00056125555382
H           1.16623064808104   -3.37345396595607    0.44156265798214
H           0.43450854583269   -5.71482768093383    0.34236786698850
H          -3.53670465081268   -4.46656598426425   -0.58454365515130
H          -2.81247924285884   -2.10371630378383   -0.52326281527785
H          -2.86130071546481  -11.29408162406446   -0.95468287714656
H          -5.63375980146280   -8.29177851592959    0.02899840576125
