21
         -34.974817141649          0.000645841342
H           0.99957940799005    0.08855953225999    0.02877528944111
C           2.07687459128958    0.08297161633623   -0.04948794704282
C           2.77364183208076    1.28106060190216   -0.11759275300322
C           4.14806410721117    1.27969422269079   -0.23303305742749
C           4.84812759633385    0.06839247185870   -0.25454534469892
C           4.13768783944443   -1.13721725531877   -0.18654551659329
C           2.76214512151286   -1.12265020731329   -0.09061707501152
N           6.21157741736428    0.14097541240097   -0.43353384556345
N           6.89517571742496   -0.85752282506704   -0.05146723309718
C           8.23400920764285   -0.82956777947982   -0.29624297055571
N           8.94123915617461    0.11804905502632   -0.99751421375929
C          10.17165671392980   -0.27312981710415   -0.97800304786200
C           9.10353403224837   -1.81324579083328    0.14525040138134
N          10.33274140953007   -1.44378395959073   -0.29441289432695
H          11.19368736095647   -1.94354644546348   -0.14057014415790
H           2.23654578073388    2.21798578734494   -0.08832711457363
H           4.70852245513117    2.19996929300856   -0.28805396446649
H           4.69021720296305   -2.06410566001559   -0.22867026776485
H           2.21538349659174   -2.05386343527379   -0.04562368248210
H          10.98915040905042    0.24479570254538   -1.43961086143221
H           8.92323914439565   -2.69820051991407    0.71810624299655
