29
         -52.327200579766          0.000754711690
C          -1.10033838700080   -0.09573183238510   -0.01164952584530
C          -0.32357094780591    1.07396550123723    0.06267767755393
C           1.00748635803401    0.81303325813471    0.15940887476553
S           1.33885820846101   -0.86776986382959    0.16626505648998
C          -0.35793192621292   -1.24994146640652    0.02973523068799
C          -0.80297864626041   -2.62110874740819   -0.02713455213092
C           0.10243326414932   -3.67313353927863    0.16826987196385
C          -0.30574833444483   -4.98227086233066    0.10008003749442
C          -1.65009190870466   -5.29261018740684   -0.15045729780975
C          -2.56328740643955   -4.24309285907041   -0.34732622978986
C          -2.14476910321947   -2.93721291769750   -0.29033984984045
N          -1.95960118199843   -6.62254089494089   -0.25076635553470
N          -3.19485736468755   -6.93504276035663   -0.23562854304525
C          -3.48911062922093   -8.25128346650872   -0.41049681364387
N          -2.60417676212256   -9.27365686780948   -0.70321567908728
C          -3.30064076488024  -10.34405579344563   -0.79680300022173
C          -4.76737475527732   -8.76049058361396   -0.33371033187588
N          -4.65075722402004  -10.10684384646604   -0.57884530171834
C          -5.62546015480738  -11.00319450855299   -0.60167025399452
N          -6.45293886847632  -11.79381428806035   -0.61724752190033
H          -2.17256372183505   -0.07836107770380   -0.08359129350984
H          -0.73629904063975    2.06693546594127    0.04548770066134
H           1.82005452175396    1.50880658886547    0.22764759990879
H           1.13836780823582   -3.44181514146955    0.37083753648839
H           0.38915380449946   -5.79361859154722    0.24960332741926
H          -3.59241019567362   -4.49064381578585   -0.56037630435544
H          -2.85722574195797   -2.14427563672572   -0.45804444454955
H          -2.92600855790577  -11.32430940968938   -1.01645604517455
H          -5.70547234154181   -8.28924185568890   -0.12772356940581
