32
         -55.039678714762          0.000989323181
C           1.60027047895577    0.19221199265389    0.59572818628457
O           2.74796080850497    0.28331502863374   -0.21414832330229
C           3.01884493517670   -0.72201935829939   -1.08491899928392
C           4.17597727222649   -0.56128183746021   -1.85690097335596
C           4.53817901830621   -1.51249508398102   -2.77737567586730
C           3.76619676638506   -2.67176528715210   -2.94304900139576
C           2.61079097132791   -2.82747228441374   -2.16693483037949
C           2.23643073878332   -1.86445205853137   -1.25517982315749
N           4.18545201375546   -3.55373693790485   -3.90899177649999
N           3.63703155542502   -4.70485825187909   -3.90876257053665
C           4.00218555651692   -5.56214593763788   -4.89717270502967
N           4.81351215377170   -5.30154931963920   -5.98099746670190
C           4.86254448313861   -6.39760958254829   -6.65586225792521
C           3.56643090445195   -6.87302975903091   -4.96021463424503
N           4.12263906344526   -7.40716890922236   -6.08635244213228
C           3.98039496353171   -8.69490222683970   -6.56203150018972
C           3.31847578644117   -9.74010479374851   -5.98361638394499
C           3.38635381395371  -10.91576548371059   -6.76136790482906
C           4.09135641241299  -10.75244742719944   -7.90805821190233
S           4.69775449102726   -9.15067941086163   -8.07923194641609
H           1.59865895571463    1.09384126165105    1.20629967556672
H           1.63671214293715   -0.68586425593041    1.24814317871147
H           0.68604418814607    0.16190584581922   -0.00589845597597
H           4.76466202217005    0.33060775060142   -1.70959410230290
H           5.42536896339287   -1.39626446269017   -3.37955700096033
H           2.01016601141639   -3.71308116049305   -2.30957739331684
H           1.33441337410867   -2.00706920931663   -0.67984615511009
H           5.41133219124922   -6.54028857555891   -7.56649006480359
H           2.93187448974319   -7.42288539708753   -4.29922075804876
H           2.80578186785675   -9.68052364668017   -5.04179994288966
H           2.92810080870808  -11.84368252087311   -6.47153164444248
H           4.30136279701602  -11.47227870066804   -8.67348809561769
