35
         -61.462264255420          0.000752555214
C          -1.07480925751288    0.01328284926158   -0.25886099478046
C          -0.17284715613535    1.06980600353714   -0.01582282843461
C           0.98621338466858    0.48366480481731    0.39497100282685
O           0.86204397066822   -0.84955298675138    0.42143733967414
C          -0.39803514071437   -1.15139025641933    0.02420308403410
C          -0.80781639859544   -2.53600777685362   -0.03133403863790
C           0.09396582542943   -3.55351084185528    0.30609955592951
C          -0.28364891836180   -4.87364689885337    0.25316233914322
C          -1.58972958164146   -5.22216298796505   -0.11678192429577
C          -2.49320615123353   -4.20347954839936   -0.46160084772217
C          -2.10549627672514   -2.88680631067662   -0.42402033421006
N          -1.88036042923958   -6.55880646811034   -0.20558701502227
N          -3.11106774449257   -6.88354983335137   -0.17659085749972
C          -3.42002119023276   -8.19174704348335   -0.36235338637086
N          -2.56445939268994   -9.22941766509512   -0.66678527828197
C          -3.30226080877516  -10.28034415701041   -0.76540744948255
C          -4.71167160156827   -8.67951236639762   -0.28397786544703
N          -4.63491599617076  -10.01520708675039   -0.54056372017759
C          -5.68459470653544  -10.91169416877230   -0.56469185663221
C          -5.64727977179096  -12.24828462168336   -0.84311250720345
C          -6.92295483676782  -12.84742352110017   -0.76938232850213
C          -7.90340044674768  -11.97014187010323   -0.44057718669942
S          -7.30036491200352  -10.37681971587637   -0.20800366641666
H          -2.08584049894383    0.10772247454428   -0.59720850314961
H          -0.36001573061429    2.11778867872519   -0.13074398512629
H           1.93314633707021    0.89431656235080    0.68532773534908
H           1.09645540410524   -3.28515663521264    0.60337803146775
H           0.40527215352910   -5.66221474180231    0.51321536247002
H          -3.48943563230263   -4.48561359588162   -0.76802461534716
H          -2.80685202857637   -2.11283601401544   -0.69551367991219
H          -2.93892257350321  -11.26157632514990   -0.99506598271765
H          -5.63377292036628   -8.18130027265190   -0.06885445649113
H          -4.75240910828071  -12.78768776739996   -1.09178055164058
H          -7.09715206551711  -13.89158559390491   -0.95548640909481
H          -8.95167579943123  -12.15341430171025   -0.31734218159792
