28
         -48.270878551894          0.000990558289
C          -1.11126353744301   -0.04273125176531   -0.25703810906770
C          -0.27252454944633    1.02526712560830   -0.07212944795424
C           0.95956392860126    0.44775917111646    0.28136619772793
N           0.87433950516061   -0.86184839076931    0.30851863749728
N          -0.38596647698897   -1.16613935152326   -0.01913736440866
C          -0.79786697481874   -2.49697639326877   -0.06581876002668
C           0.12446775340990   -3.49564868086393    0.25744853999051
C          -0.24309931260062   -4.81951653955593    0.22040980171624
C          -1.55424521931235   -5.18200008202395   -0.11511198311843
C          -2.47187856440907   -4.17475117161291   -0.44599125529741
C          -2.09775474624580   -2.85081466968624   -0.42900188221816
N          -1.83970838106036   -6.52268971506429   -0.19311606383859
N          -3.06131895335676   -6.85745022085566   -0.09658496274325
C          -3.37038959993565   -8.17010297028374   -0.27162712966592
N          -2.52966387395937   -9.19075170923839   -0.64742508562021
C          -3.26410456239808  -10.25129524099239   -0.70296061218871
C          -4.65128076567635   -8.67233159845486   -0.10524161520730
N          -4.56641408207386   -9.99777556637918   -0.38071537277546
H          -5.32467631479838  -10.66035790575719   -0.35232806718656
H          -2.14483766174822   -0.06683752744097   -0.53234059782652
H          -0.50397037114236    2.06543488932345   -0.17286710110539
H           1.88577970596708    0.93521379151659    0.51181744445152
H           1.12480542147734   -3.19785641435840    0.52770495712561
H           0.46043445473510   -5.59807833137501    0.46909438924218
H          -3.47246577724809   -4.46424908842579   -0.72954467793973
H          -2.82046008510231   -2.09593939976545   -0.69712620500478
H          -2.91399485153717  -11.22871685999914   -0.97055668058676
H          -5.55936610804947   -8.18658589810470    0.18332300602919
