30
         -52.072505206644          0.000352472528
N           1.12842370734620    0.20743214678496    0.25002981978433
C           2.48058151981263    0.12052442972140    0.04447746257527
C           3.33740698951296    1.12368811590442    0.51340580918682
C           4.69617216472253    1.01370306284868    0.34851306926154
C           5.25210948727319   -0.10802538465911   -0.28287544906269
C           4.39065746958239   -1.11771031054916   -0.74554886437996
C           3.03297946150049   -1.00152139222845   -0.58774695250596
N           6.61441216235827   -0.10638582124482   -0.42829169523692
N           7.14278190269710   -1.16561525931858   -0.91008511790484
C           8.48840573085045   -1.14037216892313   -1.10343377034373
N           9.33660199871240   -0.06378333676772   -0.94739989907065
C          10.51134226109339   -0.48760706718074   -1.26328458669580
C           9.21642555697894   -2.23413360753795   -1.53121974095416
N          10.51314169519990   -1.81366042345794   -1.62891781212010
C          11.60498925677504   -2.56086879739065   -2.01756591750817
C          11.71779682907079   -3.87521311953952   -2.37880612519107
C          13.08948444447352   -4.07029360592829   -2.67332237777660
C          13.69753656001418   -2.87282322523605   -2.47076304759880
O          12.80222670342985   -1.94622902986659   -2.07104136300141
H           0.74788529600828    1.10821222513563    0.48475427478553
H           0.53252615605599   -0.39744047228583   -0.28918047186562
H           2.91341318858373    1.98891837788272    1.00335737696326
H           5.36431212611591    1.78384763838234    0.70068934682320
H           4.82411721217337   -1.97547980622256   -1.23679451034229
H           2.37113122068812   -1.77547815821821   -0.95225547157940
H          11.40837650749452    0.09898469484915   -1.25521656869416
H           8.90916251863357   -3.23338492477220   -1.75241042047945
H          10.93679995463486   -4.60421801636839   -2.42804319676078
H          13.55048552669763   -4.98199638351353   -2.99184233810642
H          14.71500439151093   -2.55339038030141   -2.56910146220151
