30
         -52.036975181048          0.000491677478
C          -1.09952312264129    0.00946705999083   -0.31096651593812
C          -0.19108299356830    1.06646347933784   -0.09374797100486
C           0.96328053930225    0.48436533834022    0.33457257444159
O           0.83046291153457   -0.84723916152969    0.39517439785256
C          -0.43051452493409   -1.15154563488034    0.00231985002760
C          -0.84394298561633   -2.53634577361271   -0.02320412308784
C           0.05954386498266   -3.54674311789460    0.33087229828755
C          -0.31504366355977   -4.86785408939456    0.29920643510399
C          -1.62139206964485   -5.22627919987417   -0.06189341305315
C          -2.52771012362442   -4.21450322893798   -0.41872607598176
C          -2.14190310234032   -2.89610805283498   -0.40495825801495
N          -1.90278231515754   -6.56417270200709   -0.14117831120993
N          -3.12180728041285   -6.91562510371982   -0.05105991994843
C          -3.40693079329205   -8.23040110255660   -0.23341023435809
N          -2.54929746323409   -9.23490589182855   -0.59855987317923
C          -3.26925015095814  -10.31052515012832   -0.66297017820198
C          -4.68636442376583   -8.75451917697012   -0.08457746471042
N          -4.57736933446313  -10.07190543933438   -0.36381473161968
N          -5.58829830942171  -11.02146412770334   -0.25997022089255
H          -2.10939047849873    0.10104467770918   -0.65364347826935
H          -0.37129182269440    2.11232646624927   -0.23610539690815
H           1.91220223820674    0.89625212454169    0.61661502052727
H           1.06188627094959   -3.27151185224983    0.62222641244978
H           0.37574816640877   -5.65095775572369    0.57066242425315
H          -3.52447911570585   -4.50293013509316   -0.71794509768213
H          -2.84571899944068   -2.12793661974690   -0.68701002572467
H          -2.90593784968206  -11.28510953675858   -0.92345773411643
H          -5.60850483374093   -8.28787064318541    0.19086131287596
H          -6.48537944481418  -10.61146481008782   -0.50372602871612
H          -5.38672879017317  -11.81082084011586   -0.86676567320181
