25
         -46.374033767508          0.000553327205
C           1.50030023941145   -0.33310621282619    0.83555492198240
O           2.28062658280493    0.11255624211393   -0.24867226951795
C           2.77811382487142   -0.79921492079855   -1.11905185644627
C           3.53752567435048   -0.27904512501062   -2.17520722614139
C           4.07749733106812   -1.11171508516549   -3.12265529604852
C           3.89597922891005   -2.49988531476988   -3.03412508316266
C           3.13744870568957   -3.01473967251348   -1.97418799872676
C           2.57882604643413   -2.17816369522379   -1.03338308634461
N           4.43818310312979   -3.25503451901016   -4.04315313820886
N           4.48737116865281   -4.51395910137699   -3.85639200272685
C           4.95095680744124   -5.27017822896426   -4.89002061245390
N           5.18592413653086   -4.85693641706903   -6.18103971029596
C           5.57982145899277   -5.89877600810757   -6.83875322560212
C           5.21859565243581   -6.62442410006614   -4.78191466732733
N           5.61850684733520   -6.98010160340586   -6.02328848653221
F           5.98585709212438   -8.24943522894389   -6.38411744014618
H           1.22304570701216    0.56393666574459    1.38692713715247
H           2.06751448395465   -1.00012712960736    1.49253734345223
H           0.59328909607856   -0.84213957882329    0.49439410374851
H           3.67585057798065    0.78959787990961   -2.22194090887984
H           4.66004411916086   -0.72117866987051   -3.94200636705452
H           2.98648403850284   -4.08240568556101   -1.92108501188681
H           1.98842741050414   -2.60261023931556   -0.23574888591310
H           5.84137442124951   -5.93520569752886   -7.87641203407100
H           5.17092624537200   -7.30642855381025   -3.96102819884863
