23
         -38.414551681339          0.000498558005
N           1.14125692809257    0.07819392500448    0.24235478237047
C           2.50583781493264    0.06878578596809    0.10537319845162
C           3.21326320418399    1.26493577675792   -0.06118188854819
C           4.58408465535093    1.25888705781864   -0.15044198788285
C           5.30106090945359    0.05787493531962   -0.06378455068898
C           4.58922769299099   -1.14103645896022    0.10961404221972
C           3.21948658324024   -1.13409123149057    0.18690351561627
N           6.66352591731506    0.15024021535025   -0.19733306257713
N           7.33005712089236   -0.91844156708862    0.01150947892612
C           8.67731756548413   -0.85029667570860   -0.16834028916975
N           9.41063954484615    0.21156732194937   -0.64548868454736
C          10.63951644233834   -0.18657658491772   -0.66472194944105
C           9.53014803449255   -1.90750756853613    0.09811190650226
N          10.77683553702665   -1.46857605051710   -0.22003514637298
H          11.63019149803513   -1.99771430868392   -0.14241883772457
H           0.64875042572778    0.90513094495037   -0.04969524355188
H           0.65334587937706   -0.79266221734690    0.11893736567912
H           2.66484297585459    2.19452347656833   -0.12342683348668
H           5.13661411100780    2.17558984022922   -0.28461708677249
H           5.14653028567403   -2.06373739011662    0.16667912217939
H           2.67354297560844   -2.05959800399098    0.31053870581948
H          11.47243744595215    0.40487352551212   -0.99092286494037
H           9.33345645212298   -2.88670474807089    0.48029630793983
