27
         -41.314888195644          0.000356856580
N           1.24278805822190    0.04251560284705    0.38526531753200
C           2.59422430479446    0.06589350645181    0.13636868395309
C           3.34473035816248    1.21924443135202    0.38796242419049
C           4.70613737725620    1.22113139016867    0.20345388431561
C           5.37126765955443    0.07146369665867   -0.24409783355796
C           4.61454381959534   -1.08463862505875   -0.49593843544156
C           3.25486113798395   -1.08535609402400   -0.30860294302211
N           6.73170463772095    0.17664802407277   -0.39028618975623
N           7.34136286767370   -0.86483563979849   -0.83348224227528
C           8.68230386114904   -0.77351774905116   -0.96715095848281
C           9.61855172132613    0.23576759887892   -0.72975207823280
C          10.86824938592145   -0.27820634581575   -1.06414554186902
C          10.67728649877753   -1.57645137067262   -1.49468131173678
N           9.36303965506179   -1.87107016381754   -1.43728497191630
C           8.75648332441437   -3.12211327162614   -1.79150827911716
H           0.77293322599170    0.92960441798178    0.45656846593313
H           0.70909483828480   -0.69806959254166   -0.03839967288927
H           2.83886881768865    2.11072247094226    0.73176876794007
H           5.28952330185113    2.10838400170240    0.39453473500836
H           5.12493083855427   -1.97193093585204   -0.83875122876654
H           2.67743760127279   -1.97930897451220   -0.50257876047400
H           9.38623043094289    1.21377080445829   -0.35968303680295
H          11.81007850438006    0.23142625105799   -1.00291561104689
H          11.39517655757079   -2.29770855244117   -1.83590840950222
H           9.05909839601956   -3.42285274946328   -2.79603765996515
H           7.67688588353186   -2.98920170668633   -1.75861672301213
H           9.04402693629826   -3.90595042521226   -1.08673039100614
