24
         -38.142803557452          0.000355716437
N           1.14822132361846    0.05623700927427    0.26713426327954
C           2.51107676563208    0.07019396401676    0.09974407925793
C           3.19492222627009    1.27851050509686   -0.07384232289937
C           4.56393475335584    1.29722454503113   -0.18633301090417
C           5.30485474907474    0.10968185981095   -0.11305309830352
C           4.61579346602779   -1.10170290070443    0.06166580340049
C           3.24699608589133   -1.11951161885076    0.15937980760977
N           6.66373832403620    0.22552624423345   -0.25923572307661
N           7.35584600763042   -0.82836117320182   -0.01283227841868
C           8.69127842716582   -0.74132865897099   -0.20256045358224
C           9.55606039965588    0.22942185941446   -0.70768718101880
C          10.84449199344286   -0.30409958792422   -0.66446446828860
C          10.75134899460972   -1.57527430906651   -0.13879140123598
N           9.45394999439101   -1.83060090099034    0.13132685328315
H           9.07636721971684   -2.67339824255577    0.53086014051622
H           0.63786041856562    0.87391729082169   -0.02105373119935
H           0.67437909959585   -0.82216281829330    0.14091841238495
H           2.63043824034935    2.19929182212215   -0.12110449930535
H           5.09548722858148    2.22609356025760   -0.32305901269803
H           5.18685626238817   -2.01689939784591    0.10166956980332
H           2.72041593954378   -2.05611172404350    0.28364015892157
H           9.26000107551515    1.19564709753623   -1.06240538193827
H          11.74736239323728    0.18033509098031   -0.98153851110527
H          11.52056861170430   -2.29767951614783    0.05392198551737
