26
         -46.100797574456          0.000365689144
C           1.65391327926886    0.54893560996431   -0.86431858106988
O           2.38301022597965   -0.10560338141612    0.14630878758261
C           2.99854352762561    0.63857300038340    1.09813469980353
C           2.96622952245523    2.03084943538347    1.16909749986608
C           3.63466187255494    2.68361056274611    2.18303967507915
C           4.34609225588587    1.97007774330060    3.15223062685641
C           4.37322455182939    0.56646327249987    3.07507095413386
C           3.71233041303605   -0.08272948369488    2.06502810326123
N           4.98484668660279    2.71791270188410    4.11055593240126
N           5.58529731304357    2.06115111141980    5.03287033392748
C           6.23795723292831    2.78374314208766    5.96810404741197
C           6.48044688045855    4.14156391476973    6.19106350583994
C           7.25122481014691    4.25403095293581    7.34722173590286
C           7.47957718481112    2.98089455174088    7.82997538642225
N           6.86799917161481    2.13078473695550    6.98973025092386
F           6.87826369424413    0.77554943142902    7.15644140353062
H           1.25567008166778   -0.24119870904570   -1.49870162652114
H           2.29581248348645    1.20358440221399   -1.46207347705108
H           0.82533014027518    1.13109071224483   -0.44922195461534
H           2.42416867361969    2.60996494164561    0.43791601123089
H           3.61597463213630    3.76051715124011    2.24750172462614
H           4.92602074240746    0.01875010880764    3.82267254550516
H           3.72451541776395   -1.15895116833420    1.98764620610945
H           6.12310477289200    4.93051363215017    5.56116986628357
H           7.60964114384813    5.16140512684760    7.79160191212462
H           8.01912328941750    2.63527649983980    8.68817443043374
