36
         -61.315888742538          0.000789818493
C          -1.25725187740045   -0.08128401767625    0.03705667278788
C          -0.43016417684185    1.00961275533644    0.09632564170974
C           0.86786387808178    0.46785201714918    0.11082952328280
N           0.83077869857489   -0.84312839752845    0.06254884256976
N          -0.46230846130656   -1.18372346793914    0.01779667649986
C          -0.83060036985611   -2.52558005094831   -0.03910821549948
C           0.17574115531674   -3.49382784058252   -0.10326293415521
C          -0.14535957517011   -4.82709029579604   -0.17258716947560
C          -1.48592562265229   -5.23854319147771   -0.15128806715999
C          -2.48976824228884   -4.25985741980797   -0.09168309863008
C          -2.16763199468264   -2.92281866024235   -0.04336465242343
N          -1.73289617178469   -6.57924207136324   -0.28207001069829
N          -2.85666350702716   -7.00768951473235    0.16201978181418
C          -3.17032003031401   -8.29931703578112   -0.06258622165630
C          -2.55819526169618   -9.31266772636358   -0.80549961539420
C          -3.36261806716834  -10.44245570326510   -0.70267423331313
C          -4.44292208578128  -10.11410904019190    0.09292413579213
N          -4.33399969750564   -8.82268445909888    0.48019178009131
C          -5.22863978599247   -8.14636276431141    1.29079873781440
C          -6.42313987694019   -8.51752267399441    1.86530982659396
N          -6.91982958770823   -7.47921822423535    2.57949685716317
C          -6.06319665976001   -6.50335388221250    2.45127235845459
N          -5.01124083038579   -6.85380039740646    1.67672183048059
H          -4.18331577476866   -6.34801417368412    1.36528058255504
H          -2.32570411739859   -0.13484978857946    0.00409653798060
H          -0.70934596716146    2.04253067482665    0.12514302829854
H           1.80752434153494    0.98205044101987    0.15334898502272
H           1.20172576179177   -3.16284449461666   -0.10406128161851
H           0.62408927894431   -5.58120356426006   -0.22236220443148
H          -3.52536436095259   -4.56705863772070   -0.12146380641011
H          -2.96079603180005   -2.19237080069099   -0.00924588013448
H          -1.64029406601818   -9.20142288520578   -1.34630331770852
H          -3.18656227707335  -11.39866002823841   -1.15406200595862
H          -5.27235721548970  -10.71786224569926    0.40248099657764
H          -6.94811674596408   -9.44859296578911    1.80874817025765
H          -6.16700467535622   -5.53683946889298    2.90073174891987
