36
         -60.829934518055          0.000698950917
C          -1.18404803715782   -0.07598536789310   -0.30529144016045
C          -0.36109403947773    1.00971057458006   -0.15488963848076
C           0.88100144233291    0.46197816519556    0.21044622829214
N           0.81614694178835   -0.84746209547978    0.27667603531831
N          -0.44044219398719   -1.18066841241472   -0.03723813491397
C          -0.82807853205207   -2.51948732605991   -0.04894337389473
C           0.11208576573895   -3.48992151678870    0.30743272810061
C          -0.22615718134061   -4.82131677083429    0.29837725675131
C          -1.52452066296804   -5.22258110977052   -0.04545128847479
C          -2.46138357176343   -4.24249122215018   -0.40565764239127
C          -2.11703011200483   -2.91035710414815   -0.41306910267413
N          -1.77263992792902   -6.57083005230096   -0.09029865172398
N          -3.00201008193708   -6.92785793021523   -0.03157263881307
C          -3.27361103470501   -8.23498294399630   -0.20242741892700
C          -2.49423671291826   -9.31775549127869   -0.61163312947736
C          -3.33177490907859  -10.42842508982870   -0.69235189522514
C          -4.59635857258981  -10.01832319897895   -0.33243314363274
N          -4.57261952659643   -8.69482271870342   -0.03589428928020
C          -5.66412063807053   -7.95150915577223    0.36961540408647
C          -5.69103330851863   -6.70339032140355    0.92032720350420
C          -7.00338075316615   -6.26538211376923    1.19977976313959
C          -7.95131373960381   -7.17654461387392    0.86755553762555
S          -7.27012561272671   -8.60508848275577    0.19360346004251
H          -2.21819997491384   -0.12423651920750   -0.57539097186086
H          -0.60853481023716    2.04291804291863   -0.28530886279767
H           1.80054701660465    0.97003924926605    0.42259271168323
H           1.10283340097683   -3.16394898258595    0.58021068175006
H           0.49196449421509   -5.57746111578064    0.57347584540205
H          -3.45223061224600   -4.55717552702470   -0.69823621790527
H          -2.85314114903242   -2.17799412748530   -0.70619927945099
H          -1.44627671159274   -9.26474589899676   -0.82738093509685
H          -3.05318137606462  -11.42297457567254   -0.97960644932355
H          -5.50626605670780  -10.58301046586498   -0.26578509832319
H          -4.80297319411890   -6.13164009632371    1.11144314341136
H          -7.22680914337339   -5.30880114223767    1.63647618985438
H          -9.01515688477774   -7.10917454236465    0.97629741386632
