36
         -60.849938852181          0.000694291866
C          -1.23189831844488   -0.13663019077095    0.03873318900045
C          -0.51959174061680    1.07558403188010    0.07727571801836
C           0.82594773014872    0.89123077273717    0.12163910666600
S           1.25083526426588   -0.76973015220664    0.11689714979068
C          -0.42583047574046   -1.24724685504782    0.05355852362256
C          -0.79605683420441   -2.64126508796781    0.01589121326487
C           0.18439083379878   -3.64196640659883   -0.02924892595924
C          -0.15495687070423   -4.96985539135418   -0.09685435310860
C          -1.50244568107052   -5.36010679008334   -0.09439244424836
C          -2.48922499898143   -4.36148329880901   -0.04181142984008
C          -2.14137931858956   -3.03425703523033    0.00525349661290
N          -1.77331280509545   -6.69012015226617   -0.25116187614631
N          -2.91345910137555   -7.10885952654331    0.16005253701202
C          -3.25717170834775   -8.38085036880108   -0.12448815117152
C          -2.67042486706589   -9.37172357218006   -0.91599141255029
C          -3.50953782789239  -10.48066999213354   -0.87812275066917
C          -4.58505543724581  -10.16251336904855   -0.07262300304528
N          -4.43981929133398   -8.89686698878787    0.38356724442015
C          -5.32064208400622   -8.23626295233163    1.22178146749868
C          -6.52311831195401   -8.60548336446294    1.77976455840256
N          -6.99912994481824   -7.58691409196323    2.53583462859319
C          -6.12211456974934   -6.62478789612903    2.44784258022490
N          -5.07686954768282   -6.96518640029509    1.66010409193213
H          -4.23585572000040   -6.46751764505709    1.36957435503867
H          -2.30499867641488   -0.17816235172353   -0.00274977657941
H          -0.98858330097083    2.04337220558368    0.07119598440688
H           1.60054635626289    1.63117495648453    0.15645516732567
H           1.22609625088304   -3.35447464558065   -0.02112382965398
H           0.60305501687369   -5.73653632840368   -0.13416727773397
H          -3.52925043993803   -4.65279265814842   -0.07986961352089
H          -2.91868557794308   -2.28693453278187    0.03326466126387
H          -1.74642674772644   -9.26056849322753   -1.44653152566248
H          -3.35924370929551  -11.41592717570112   -1.38001084066821
H          -5.43534273184037  -10.75536379028266    0.19951644011473
H          -7.06733206777563   -9.52233638708460    1.68579814272526
H          -6.20568274540825   -5.67514807568310    2.93584695462299
