23
         -39.226986596108          0.000378762513
H           1.14883290268617    0.02389863299774    0.34869999200175
C           2.22090635982466    0.03011785558292    0.21756018693243
C           2.97043258433590    1.09560480924612    0.69487432942058
C           4.33909411930634    1.11134993264165    0.52280908184230
C           4.97567312061623    0.04660189689016   -0.12537624571994
C           4.21155803110624   -1.02778416076770   -0.60375051344673
C           2.84456328644216   -1.02741338885240   -0.43126807487162
N           6.34094727551445    0.15672133101832   -0.27556817205695
N           6.93651773927830   -0.87683295866246   -0.73767538421222
C           8.26782835597992   -0.78271764791343   -0.93936144280771
C           9.22016820704857    0.21835227752979   -0.82507096972576
C          10.45456954492164   -0.32201488329352   -1.21825896647927
C          10.25173152717289   -1.63169922603156   -1.56455084073117
N           8.92455848244919   -1.92150564727223   -1.40027139046992
C           8.34792263937446   -3.09048949292349   -1.63791643486271
N           7.86951270032395   -4.10832272569212   -1.84910849659923
H           2.48066788251449    1.91568865870611    1.19912579288105
H           4.94187618448170    1.92925819669687    0.88624684923351
H           4.71595651475370   -1.83827751681813   -1.10813860904175
H           2.25512345001306   -1.85291954232792   -0.80313956133996
H           9.02124721229173    1.21818875242309   -0.49594769476039
H          11.39376666903815    0.19461466338526   -1.24553983541680
H          10.93965521052722   -2.37732981656318   -1.91299359977108
