31
         -51.797681434402          0.000447481423
N           1.22637092761116   -0.22971497437172    0.09431417236185
C           2.58000041201054   -0.16898016272691   -0.12283076895851
C           3.25950659093074    1.05174592893097   -0.04234778636030
C           4.62325904256899    1.10365205152743   -0.19994806753996
C           5.35894106598008   -0.06309514076669   -0.44808427476903
C           4.67545090153543   -1.28863640756084   -0.52445623474361
C           3.31405387957302   -1.33772030350807   -0.36423748151875
N           6.71494581078808    0.08592750839350   -0.59470542030196
N           7.36918256701400   -0.98958923329758   -0.84927350206139
C           8.70221068572185   -0.87008416270459   -1.01409073027184
C           9.57299424003694    0.21456121001921   -1.06168805107617
C          10.85240467633734   -0.28531727598442   -1.31716002580640
C          10.75112140047646   -1.65170228498404   -1.41997773541622
N           9.45115057037291   -2.01524469924801   -1.23951555999046
C           8.98450325023848   -3.31469270149285   -1.27756649940555
C           9.59664093253795   -4.45852641059833   -1.72029716639452
C           8.65728425680662   -5.49688561126479   -1.51619015307026
C           7.55855084627938   -4.91013705716172   -0.97146035044223
O           7.75214293421475   -3.58641948882422   -0.82178535035653
H           0.70589418837076    0.62878922133616    0.02726902443241
H           0.74398708923439   -1.05974501473579   -0.20583163132703
H           2.69623130941548    1.95503466715792    0.14626844796689
H           5.15218601452508    2.04222647258098   -0.14154908639730
H           5.25113756618513   -2.18253217738850   -0.71055120660544
H           2.78954465323300   -2.28212660807391   -0.42250906471698
H           9.28163880874245    1.23673831975687   -0.92921664549302
H          11.75493937446842    0.28592230804541   -1.41448019022278
H          11.51307899647931   -2.38366154878309   -1.59734470348132
H          10.57496201067705   -4.55201668806645   -2.14291476706091
H           8.78980976034874   -6.53357897897577   -1.74755731718323
H           6.61284523729270   -5.30382075723079   -0.65787187379020
