32
         -51.532459900456          0.000361750645
C          -1.16786794539119   -0.02826812869089   -0.29983652490525
C          -0.28580754719437    1.04998354337068   -0.07742974113936
C           0.88483475093821    0.49434640910843    0.34149821458787
O           0.78623311076963   -0.84093249563830    0.39207293454040
C          -0.46805980214193   -1.17418682944014    0.00124816735716
C          -0.84537301626666   -2.56914426531114   -0.03583118648444
C           0.08943624801993   -3.55998213864252    0.28946613419294
C          -0.25155696400498   -4.88997840464248    0.24689320971252
C          -1.55258564205167   -5.27922404823313   -0.10085676543858
C          -2.49004047381500   -4.28620638407771   -0.42851567477875
C          -2.13970101873957   -2.95843054874678   -0.40053664261226
N          -1.79986601540689   -6.62494161893141   -0.18162121459136
N          -3.02722468984516   -6.99165316285294   -0.13456229240109
C          -3.28871474293397   -8.30085106286685   -0.31743459523076
C          -2.51571712321129   -9.41690260926918   -0.65682112757117
C          -3.37786474971633  -10.50542662909587   -0.72004705600053
C          -4.64701762184713  -10.04328428848628   -0.42020684935814
N          -4.59129999177163   -8.72083551772692   -0.18248547683612
C          -5.68500012039615   -7.86320977754547    0.17477843343676
H          -2.18083844432456    0.04018336696746   -0.63887527627951
H          -0.49335321785368    2.09202868566331   -0.21085604266144
H           1.82386532181567    0.92818016877311    0.62370794487499
H           1.08891966299497   -3.26277765502915    0.56895590769828
H           0.46532679312612   -5.65696335847991    0.49671925047752
H          -3.48411096463829   -4.59475646646412   -0.71673893942866
H          -2.86867973523694   -2.20572097693053   -0.65966124286836
H          -1.45910048426277   -9.40154791442070   -0.83312079503138
H          -3.11885803692541  -11.51882038495917   -0.95657466622951
H          -5.57332661962995  -10.58300122179941   -0.36676905736930
H          -6.61002722541836   -8.43682557738763    0.17849922172488
H          -5.76655044998966   -7.04448650871871   -0.54157643426337
H          -5.51955324465118   -7.43354419949526    1.16441818287633
