28
         -45.344324010613          0.000797904493
C           2.18736138496390   -1.14031613135177   -0.70115635134120
O           2.75668237073710    0.00690112924237   -0.11895037812234
C           3.41774440976449   -0.11710394897500    1.06240032528295
C           3.94837910929816    1.06567780154664    1.58898972322205
C           4.63988774799573    1.05365505092659    2.77437120379820
C           4.81853764000434   -0.14228640502214    3.48477092763769
C           4.28502550576493   -1.32143718452199    2.95060545295170
C           3.59658167304873   -1.31267902003406    1.75648595747289
N           5.54197700133193   -0.05442808225994    4.65041503019007
N           5.60082359004405   -1.11841505816249    5.36763431533456
C           6.33651579353567   -1.07336286168683    6.49499662403262
C           7.13998142482850   -0.12807459177062    7.14353351179121
C           7.65041934798217   -0.73898054035127    8.28085709983239
C           7.15258492975252   -2.03245960829353    8.32696624647790
N           6.37075457022357   -2.22204835349598    7.25264797541396
N           5.63472277978058   -3.36403133372189    6.95717928561350
H           1.71192519343180   -0.79932991282946   -1.61956995567960
H           1.43126333827287   -1.59018990236056   -0.04877485464257
H           2.94888649157425   -1.88875689785148   -0.94567988515039
H           3.79988535532978    1.97978125608826    1.03609874390684
H           5.05228017028234    1.96125291585943    3.18613981909364
H           4.42864689074130   -2.24842439167362    3.48512658523537
H           3.20337614046803   -2.24123056973095    1.37097669042273
H           7.30877638172110    0.87252943205474    6.80084124475743
H           8.30957426946945   -0.29986800505435    9.00361904965738
H           7.31583458112090   -2.81324577031148    9.04297547730909
H           6.25076546737549   -4.14056113670773    6.71934693924706
H           5.06246644115473   -3.12761787954647    6.14558319625687
