31
         -51.460120917762          0.000544128037
N           1.25189468224950   -0.23197442169703    0.95557098167913
C           2.59644459715919   -0.18437117342744    0.69703585445086
C           3.40761355045336    0.77869693401612    1.31016596921701
C           4.76181905894753    0.79699955721825    1.08815038145024
C           5.36770124354456   -0.16551648526365    0.26636957099021
C           4.55074350212446   -1.12867317719369   -0.35035837197058
C           3.19338277302122   -1.12917256862645   -0.14657641573258
N           6.71543876541560   -0.04366124036001    0.07008827532659
N           7.33120004612851   -1.07294038339907   -0.39098207560326
C           8.64102597418978   -0.92762507367560   -0.69402701092790
C           9.48478969347048    0.18127737477264   -0.75106620970606
C          10.73017239567667   -0.26811304300178   -1.18627155296430
C          10.63603965005320   -1.62897775389388   -1.38393085204272
N           9.37550150582107   -2.03303636299907   -1.09143659684555
C           8.91082656453954   -3.33426211888987   -1.15644686448524
C           9.49766903337606   -4.51354640191306   -1.55310650473536
N           8.60542808573771   -5.52588585208546   -1.42163336318713
C           7.50919515671965   -4.98914765686078   -0.96042551841835
N           7.63831606918269   -3.65522709754049   -0.77769190661879
H           6.99892244473290   -2.92634184278695   -0.45842944542222
H           0.82423791424496    0.58074209711702    1.36549588041134
H           0.67320700190253   -0.77082838424642    0.33440971371239
H           2.95166885741411    1.51429137994255    1.95736426049328
H           5.38984177538720    1.53916856838987    1.55542481526517
H           4.99854277144424   -1.84538853537363   -1.02386453240622
H           2.56946796700616   -1.86049840812540   -0.64157591494389
H           9.19443197681927    1.18311247707701   -0.50745376370092
H          11.60714976958237    0.32853001643567   -1.34258437917813
H          11.37907026478421   -2.32883234881627   -1.71000596825446
H          10.48622541851658   -4.69545191711652   -1.92100076767408
H           6.60857149035541   -5.52720615767783   -0.74483768817806
