32
         -51.171530621914          0.000438937649
C          -1.16418333078820   -0.06832308544998   -0.28306460288480
C          -0.34038414038469    1.01513263383965   -0.11792559300657
C           0.89477690216145    0.46278437729917    0.26162266661603
N           0.82586084117054   -0.84729610907117    0.32078944855083
N          -0.42738867895588   -1.17556052700894   -0.00973813321923
C          -0.81783283455863   -2.51433318344180   -0.04033974610277
C           0.13377493025138   -3.49571180222875    0.24724206054230
C          -0.20788348055642   -4.82632347743752    0.21269728811673
C          -1.51942008740561   -5.21660786087853   -0.08992503197640
C          -2.46862952278371   -4.22458533174174   -0.37556016841401
C          -2.12285107613365   -2.89291387047791   -0.35590586361064
N          -1.76965026807143   -6.56384925854430   -0.17108310474877
N          -2.99722303625794   -6.92476618748405   -0.09881465279595
C          -3.27074353744930   -8.23140059383335   -0.27998931973317
C          -2.51136254822888   -9.35097514057374   -0.63885693256404
C          -3.38203009588204  -10.43291020325824   -0.69224477890697
C          -4.64255555113935   -9.96340334992748   -0.36718124332963
N          -4.57370387233642   -8.64302983615359   -0.12378185436111
C          -5.65465172251580   -7.77961390385731    0.25728018933565
H          -2.19366473238772   -0.11275382955657   -0.57119047014869
H          -0.58369297571010    2.04934106884309   -0.24898445631818
H           1.81267007201654    0.96764691464887    0.48844416007428
H           1.13599848248572   -3.17959274659518    0.48804471347649
H           0.52043090948428   -5.59088674079444    0.43274916529837
H          -3.47336118942529   -4.52984287899344   -0.62644561569503
H          -2.87180823134131   -2.15097727689419   -0.58613872469280
H          -1.45808866061119   -9.34181458340932   -0.83413922105935
H          -3.13460215690675  -11.44666776629242   -0.93902392304403
H          -5.57147217202151  -10.49709489750642   -0.29999567357313
H          -6.58522495667231   -8.34405346958227    0.26469566787191
H          -5.73629207744681   -6.95145397254218   -0.44805259802329
H          -5.47381120159855   -7.36403311109603    1.25027634832617
