36
         -61.191016543598          0.000277363503
C          -1.17018082999384   -0.04071706572313   -0.34425937970321
C          -0.29087499319243    1.04470103078065   -0.15004831171487
C           0.88243637472979    0.50227646612286    0.27950879328100
O           0.78807443885967   -0.83122606763103    0.36215458285806
C          -0.46619727482162   -1.17727685622377   -0.01721944429457
C          -0.84124823888568   -2.57275239312270   -0.01877247834289
C           0.08806778255420   -3.55249265821810    0.35360275142585
C          -0.25153200450403   -4.88333812378992    0.34442065210472
C          -1.54551953840213   -5.28342740983491   -0.01769455222082
C          -2.47762495565027   -4.30193286419026   -0.39373608743567
C          -2.12834444170665   -2.97382696897460   -0.39713913843777
N          -1.79227228209877   -6.63045385066927   -0.06181571618355
N          -3.02261749000846   -6.98926909183348   -0.03275316378850
C          -3.28859445644809   -8.29691711926765   -0.20860600041642
C          -2.50065370511077   -9.37855352151444   -0.60324767595265
C          -3.33545970561172  -10.49026067670096   -0.70118304626098
C          -4.60708914526108  -10.08183741548185   -0.36638145703198
N          -4.59032488627243   -8.75812458491856   -0.06841001992260
C          -5.69011299417862   -8.01586646382464    0.31539353219380
C          -5.72944962599119   -6.76741348900596    0.86445518066352
C          -7.04757578913500   -6.33033270631632    1.11700625141884
C          -7.98766504735911   -7.24266635075759    0.76822085424795
S          -7.29192759195445   -8.67117438825892    0.10839896115833
H          -2.18431919826078    0.01676490285419   -0.68165978469774
H          -0.50168921752291    2.08260157968368   -0.30758938423208
H           1.82102289025297    0.94552943984432    0.54815693126004
H           1.08179809977608   -3.24632581512833    0.64334232832842
H           0.45990541918298   -5.64199970330285    0.63191142150670
H          -3.46437046477703   -4.61883537881008   -0.69853258144423
H          -2.85161069037430   -2.23027038039549   -0.69498120472203
H          -1.44872910124329   -9.32471463990991   -0.79864001020490
H          -3.05000770321656  -11.48440930093678   -0.98330093423643
H          -5.51775052852996  -10.64710322307400   -0.31787904352416
H          -4.84600306660128   -6.19420804515506    1.07121643169624
H          -7.28010050795043   -5.37328470814387    1.54773709456315
H          -9.05342953029305   -7.17665215817078    0.85656364806116
