36
         -60.363750672712          0.000499661717
C          -1.19903100952155   -0.12945836205555   -0.12930501657196
C          -0.47886093620177    1.07377359350428   -0.01630695404522
C           0.84463016593041    0.87205423470942    0.21724956746995
S           1.23756292499250   -0.79477961687257    0.30674432967539
C          -0.42184526998464   -1.25051387451452    0.01966612633750
C          -0.80755310734932   -2.64051511111870   -0.03127758246053
C           0.13673741977050   -3.65203414924374    0.18817535611409
C          -0.21655122579877   -4.97790751701503    0.13857769801294
C          -1.54352500247571   -5.35001186779951   -0.11801741688771
C          -2.49250378526621   -4.34097043830206   -0.35013497052985
C          -2.12949271673178   -3.01765303959864   -0.30807487069356
N          -1.80625811041100   -6.69298331615255   -0.19367218090947
N          -3.04041565414602   -7.03787870254456   -0.12295230320116
C          -3.32213633326797   -8.34206379240820   -0.29966128023237
C          -2.54461301605658   -9.43755251828800   -0.67697646796490
C          -3.39140330405633  -10.54070053952074   -0.76627633041435
C          -4.66058587236454  -10.11322051123667   -0.44572165643608
N          -4.62989082908076   -8.78694228551255   -0.16136078645484
C          -5.72447859249209   -8.02794789294001    0.20412500963245
C          -5.75350736740948   -6.78727340712453    0.77122198450891
C          -7.06907634624152   -6.32841386155720    0.99745306978793
C          -8.01732171920371   -7.21697515662328    0.61063593851844
S          -7.33266781247262   -8.64875461682961   -0.05366857254556
H          -2.25804535674180   -0.15760189023200   -0.31153917241304
H          -0.92684502172818    2.04769425640651   -0.10506308323870
H           1.61955949700373    1.60159905042369    0.34428236478292
H           1.16094083827617   -3.37642718631295    0.39616144908809
H           0.51178182091353   -5.75494610748316    0.31116281982536
H          -3.50766164789486   -4.63005165341867   -0.57966295031238
H          -2.87443195826416   -2.25928890287737   -0.49453888501184
H          -1.49022147278363   -9.39898394006504   -0.86241069680840
H          -3.11594326839946  -11.54193999737031   -1.03283365931610
H          -5.57876866312308  -10.66642726985365   -0.39852911005218
H          -4.86422819435773   -6.23607064499445    1.01109221747856
H          -7.29478319931884   -5.37405035118138    1.43812027661813
H          -9.08356587374367   -7.13191261399668    0.67329573864932
