29
         -52.175289813900          0.000412797014
C          -1.16148389563041   -0.02420552850074    0.00956113366615
N          -0.37849800347506    1.07667298616141    0.02458196702765
C           0.85109417581030    0.64054805729045   -0.00491097621882
N           0.90524581728668   -0.70942424280117   -0.03205449212140
H           1.73434852482730   -1.27777225517412   -0.07414497580455
C          -0.39051642215968   -1.17128463905029   -0.02704104271847
C          -0.75748800769922   -2.56635480215353   -0.04871414720142
C           0.19709191402675   -3.58244653437311    0.08753116992286
C          -0.17068532044942   -4.90684234954373    0.05129005985665
C          -1.51360566001620   -5.26765287214269   -0.11415106050620
C          -2.47624945602371   -4.25280039781947   -0.24215062246489
C          -2.10130006623033   -2.93325016030603   -0.21156736874980
N          -1.78074099962257   -6.61310438943125   -0.17778782891668
N          -3.02000367343710   -6.93913546574836   -0.20487149187057
C          -3.30803819484432   -8.25076076085605   -0.32157952910828
C          -2.57035121818980   -9.42819565252508   -0.47817485430247
C          -3.47097726794344  -10.48754279048939   -0.56620368702234
C          -4.74743008444140   -9.96911162165627   -0.46415082945966
N          -4.61836166911183   -8.64145344256464   -0.32109120882962
F          -5.67957326648683   -7.79439072727761   -0.19035840124292
H          -2.22781878526868    0.07114550867141    0.03559164009005
H           1.72254824361165    1.26443958820043   -0.00589615569847
H           1.23982527738978   -3.33638497375164    0.23120333624497
H           0.56350115498175   -5.69064646398244    0.15678322102311
H          -3.50891372797125   -4.53696985809044   -0.37536495057963
H          -2.84629097637917   -2.16098759122339   -0.32289542340465
H          -1.50110252248858   -9.47083504489705   -0.52166939138696
H          -3.22943374815376  -11.52429324500602   -0.69196553064112
H          -5.70721214191123  -10.44418033095928   -0.48351855958219
