32
         -51.185184594007          0.000858970827
C          -1.20789415009673   -0.06054664043285    0.01972199455087
N          -0.43014470942499    1.04572101996028    0.02884047344835
C           0.80070791686601    0.61592652794417   -0.00881368742443
N           0.86132505690209   -0.73448650991015   -0.03346229588146
H           1.69104168892626   -1.30113857108871   -0.08230457484011
C          -0.43189102669372   -1.20204505080829   -0.01991213830628
C          -0.78977742912467   -2.60095222753777   -0.03949287028941
C           0.15662113646979   -3.60707019787239    0.18898571681599
C          -0.19811072018564   -4.93501549312778    0.14798336546897
C          -1.52263619605139   -5.31040988974202   -0.10685524751560
C          -2.47598131990250   -4.30384130896410   -0.32907952477642
C          -2.11325845518298   -2.98027517518918   -0.29825048663962
N          -1.78208553936733   -6.65505508147036   -0.20143002241963
N          -3.01563812795301   -7.00153835881658   -0.13900211539710
C          -3.30505852594216   -8.30284211055746   -0.32932839927427
C          -2.55785160099773   -9.43549471747948   -0.67259353245410
C          -3.44586653528552  -10.50191558667921   -0.74586419349448
C          -4.70501748513331  -10.01061760438292   -0.44849100689709
N          -4.61813288522031   -8.69223887920219   -0.20114698901257
C          -5.69177752688443   -7.80686341001523    0.14970384447008
H          -2.27465083303536    0.02673247789288    0.05691132717744
H           1.66925729969396    1.24379390299958   -0.01814965328724
H           1.18271238979777   -3.34894225125952    0.41101095473648
H           0.53158898418851   -5.70996842184858    0.32584702638497
H          -3.49280016879789   -4.59810494020438   -0.54150101833621
H          -2.85129887499647   -2.21569127761763   -0.48630957359109
H          -1.50038379255177   -9.44474395452313   -0.84416014314713
H          -3.21094188963876  -11.51985306915876   -0.98775264522360
H          -5.64429659565292  -10.52816120041404   -0.40344010525718
H          -6.63026322559641   -8.35773572385997    0.15522183072913
H          -5.75259422424243   -6.99075494579589   -0.57164813332580
H          -5.51678263488619   -7.37574133083807    1.13691182300872
