29
         -52.161713180877          0.000565674323
C          -1.14413950157997   -0.03714759054642   -0.27306189547537
C          -0.31093086254199    1.04101257134388   -0.13096082378475
C           0.92971344170544    0.48294034916121    0.22691148289956
N           0.85510624013771   -0.82539134919121    0.29333449748636
N          -0.40756642972289   -1.14835982970274   -0.00890720643985
C          -0.80404813213309   -2.48302668298963   -0.02846328046651
C           0.16380772667057   -3.47074234591235    0.17083049238006
C          -0.18566506138293   -4.79952232259806    0.14062573629420
C          -1.51678162056228   -5.17859851462855   -0.07810110262889
C          -2.48484515372198   -4.18078865016859   -0.26652202178185
C          -2.13338992307502   -2.85165037512859   -0.24405308620931
N          -1.76919067690367   -6.52787311144617   -0.13901136747759
N          -3.00261251758463   -6.87064394038348   -0.17063766409890
C          -3.27150340664678   -8.18639385818853   -0.29345179756639
C          -2.51615883897079   -9.35105568962785   -0.46056944282711
C          -3.40062851849199  -10.42363824585401   -0.54965874253259
C          -4.68447956336974   -9.92578714898569   -0.43716977698107
N          -4.57567988344717   -8.59709579329197   -0.28857559253867
F          -5.64862644275394   -7.76681202261922   -0.14595372478546
H          -2.17782911419571   -0.07813569034917   -0.54587506217946
H          -0.54958325934093    2.07601778065015   -0.26310073123894
H           1.85434623113509    0.98410784994995    0.43307676491973
H           1.18195832677725   -3.16043994539533    0.34179200024214
H           0.55279724472729   -5.57129917065651    0.29021706738290
H          -3.50766993433367   -4.48003276236973   -0.43654178272265
H          -2.89517270908430   -2.10204598458947   -0.39121372860058
H          -1.44668459457214   -9.37630948383091   -0.51049107691862
H          -3.14379947225943  -11.45586536615032   -0.68245701710644
H          -5.63651359447843  -10.41628267650072   -0.45389111724363
