25
         -42.668787640829          0.000853273963
N           1.21772430689465    0.07287296687070    0.18882119113201
C           2.57170438988799    0.08236204775477    0.00779911825026
C           3.23019014251243    1.25269314108945   -0.39328133845160
C           4.59612964006475    1.27418974244100   -0.52415503442363
C           5.35840077502671    0.12671908078619   -0.25680698944154
C           4.69576733478678   -1.04715798415032    0.14824197515417
C           3.33180200220165   -1.06612651117184    0.27547051237180
N           6.71082316695388    0.24261458851498   -0.41861526889727
N           7.40409008797455   -0.80742957432179   -0.15484620504084
C           8.74155180890910   -0.70724881183838   -0.31401464907697
C           9.62114422904813    0.28292904321957   -0.71923617255306
C          10.91943373642857   -0.25301063481672   -0.66988790840953
C          10.82671177578695   -1.54862406993277   -0.24095291230115
N           9.50354399676898   -1.83625450559906   -0.02141442058304
C           9.02310720108922   -2.99410126789829    0.40199871195225
N           8.63177074506999   -4.00553625705707    0.76911477682302
H           0.67885209344780    0.83260952383945   -0.18993906462581
H           0.75254014461140   -0.81557624682215    0.26742076668257
H           2.64698960159885    2.13918944439042   -0.59885468745855
H           5.10934097748931    2.17075707531725   -0.83543491027502
H           5.28760492990574   -1.92688763636454    0.35068104918778
H           2.82443644164708   -1.96935807015580    0.58473434848723
H           9.33593127307532    1.27270056166622   -1.01299488130558
H          11.82708518598017    0.25945894125464   -0.92308776539214
H          11.58508401283975   -2.28819458701638   -0.07318024180472
