32
         -50.705228906795          0.000423948114
C          -1.19579535736035   -0.12365811792219   -0.01990530868969
C          -0.46674858618847    1.07790196450883    0.05227118930853
C           0.87111854468490    0.87261265632665    0.16792270610520
S           1.26801055518460   -0.79624105420766    0.19210531847772
C          -0.41083026409770   -1.24678480526050    0.04184060793079
C          -0.80102002676360   -2.63603649262937   -0.00783938289868
C           0.14539624754787   -3.65190337802074    0.17701511102019
C          -0.21152930927099   -4.97677430498292    0.11630760097071
C          -1.54358094458156   -5.34330792580803   -0.11853213283512
C          -2.49597856673821   -4.32910940014529   -0.30623612253329
C          -2.13041257926830   -3.00687487446742   -0.25360981091161
N          -1.81081170889524   -6.68528435721507   -0.22194523030308
N          -3.04722801387254   -7.02380312709405   -0.16130744187800
C          -3.34697766527179   -8.32336521481950   -0.34492965471904
C          -2.60818760522584   -9.46923968724956   -0.66200781688695
C          -3.50695060745095  -10.52729868819020   -0.72944460660156
C          -4.76421221155932  -10.01805150239399   -0.45598051839106
N          -4.66574030029273   -8.69674005567130   -0.22772490882462
C          -5.73529474381698   -7.79642608412039    0.09555478989371
H          -2.26674746130392   -0.14881151150806   -0.10749026322736
H          -0.91931687577703    2.05319672567425    0.01900545041823
H           1.65534770738491    1.59975722149299    0.23948211855020
H           1.17429932969365   -3.38056633674408    0.36701325023705
H           0.51982308922554   -5.75685373746040    0.26043383861268
H          -3.51801177551583   -4.61475548210146   -0.50636887584422
H          -2.87808489208677   -2.24444401633856   -0.41116910566021
H          -1.54877576310251   -9.49397557831072   -0.81913528885773
H          -3.27990887091018  -11.55151712056658   -0.95176204022308
H          -5.71010684274629  -10.52382396755402   -0.41467590241197
H          -6.68124971856527   -8.33437314698519    0.07650507376508
H          -5.76601265176474   -6.97987533150176   -0.62723352395026
H          -5.58073213129436   -7.36728326873398    1.08722088035764
