36
         -61.677243094411          0.000606953630
C          -1.26927248123340   -0.04234313980603    0.01708160085164
C          -0.37737374695062    1.04779925733411    0.08641571438333
C           0.87138520422228    0.50617178045398    0.13246584112261
O           0.81161978368355   -0.83106133685526    0.09531546775189
C          -0.49580861164883   -1.18063870813268    0.02494788555435
C          -0.84731272175917   -2.58090977716926   -0.02423241149908
C           0.15491425166634   -3.56014152100501   -0.02618524823504
C          -0.16422498996780   -4.89410201737422   -0.08570654974252
C          -1.50552670706848   -5.30339033707088   -0.11539531238762
C          -2.51106270854034   -4.32166036905564   -0.11772161974627
C          -2.18531074882777   -2.98786261800777   -0.08094407113121
N          -1.74887150283233   -6.64294422020051   -0.24061222025150
N          -2.88554884670699   -7.07318677815676    0.16754218136020
C          -3.19073405846984   -8.36469768185223   -0.07287896014243
C          -2.56289289170897   -9.36939026014434   -0.81337458671129
C          -3.36845704136276  -10.50126189576017   -0.73923844593162
C          -4.46451018986803  -10.18255183011534    0.03753335650745
N          -4.36447106281986   -8.89467621358234    0.44064780148999
C          -5.27450060361836   -8.22897070180786    1.24269591529308
C          -6.47262937585245   -8.61278885479840    1.80051850489422
N          -6.98578415150813   -7.58246594744133    2.51524661720498
C          -6.13530109275966   -6.59936582046020    2.40258482025229
N          -5.07161058335921   -6.93694815662638    1.63841959995596
H          -4.24261825408427   -6.42483891566750    1.33937040837600
H          -2.33678182530601    0.01362713405108   -0.03389998913425
H          -0.62951060992897    2.08806765286602    0.10056164393482
H           1.84433387395854    0.95264619095280    0.19063852505482
H           1.18784572057424   -3.24957966593878    0.01193178460142
H           0.60427301733445   -5.65141594241592   -0.08675456246269
H          -3.54402947035860   -4.63258964579541   -0.18770276801799
H          -2.96841121557861   -2.24570998828867   -0.09630459257944
H          -1.63492650578020   -9.25272630889656   -1.33557661306320
H          -3.18206645965712  -11.45202226454515   -1.19799028128336
H          -5.29996647515467  -10.78917598639630    0.32432085614440
H          -6.99017394323920   -9.54728537448073    1.73279269982958
H          -6.25117297548885   -5.63611973780977    2.85602700775681
