31
         -51.406134276192          0.000641075238
C          -1.20256808315083   -0.07531428028321   -0.25701999418018
C          -0.38320503866831    1.01055261715514   -0.08612477058624
C           0.85982751455388    0.46025731623361    0.27072497320045
N           0.79874721009807   -0.85069069157974    0.31358461675560
N          -0.45614985876205   -1.18186598079342   -0.00763637078101
C          -0.83794550769487   -2.52234960075198   -0.05229357993825
C           0.11112689796205   -3.49891822847202    0.25998448242393
C          -0.22062309649789   -4.83110537090404    0.21232033825333
C          -1.52141133341289   -5.22962689107723   -0.12578924075481
C          -2.46711004076019   -4.24257813799438   -0.43880365061813
C          -2.12972088165369   -2.90860127720970   -0.40877253020675
N          -1.75741124326998   -6.57759595044011   -0.21456637888684
N          -2.97849958531215   -6.95961885584799   -0.13733074615941
C          -3.24806381118987   -8.26351217464921   -0.32729712653918
C          -2.52337804153648   -9.40490213494841   -0.69561362139940
C          -3.42478864693573  -10.45721446755688   -0.75303432437892
C          -4.67655517879325   -9.96276145066449   -0.41132709205473
N          -4.55976878909637   -8.65054308769268   -0.16363405666447
N          -5.56379261279511   -7.79870381715283    0.27656277648130
H          -2.23617404513014   -0.12160479771971   -0.52974063736513
H          -0.63393725551986    2.04506563528406   -0.19946479228167
H           1.77744740131673    0.96734591705797    0.49340365684607
H           1.10425141260598   -3.17722819066095    0.52919942603788
H           0.50526312787625   -5.59206262467057    0.45150309965545
H          -3.46190641084624   -4.54872540786939   -0.72675678638716
H          -2.87488813431190   -2.17151077039074   -0.66523754286116
H          -1.47036450569871   -9.42616090959240   -0.89002237953541
H          -3.20845349620333  -11.47508014260250   -1.01077218577765
H          -5.62205972439648  -10.46358689751070   -0.34269271502222
H          -6.28774673116413   -7.69018693931174   -0.43168564513614
H          -5.11818151161246   -6.89840240738401    0.45366279786071
