33
         -54.768514933453          0.000849315422
C           1.39396999430933    0.84826650310838   -0.13811855891903
O           2.64792104098925    0.26908346787082    0.13043030928974
C           3.27811542658432    0.58081150263489    1.29268952148419
C           2.77717774691216    1.43951996173097    2.26975637721801
C           3.50970127745371    1.68545188636422    3.41208858489976
C           4.74855494685409    1.07236452452037    3.62014882754907
C           5.25017243329117    0.21451983985822    2.62620112012665
C           4.52768908916859   -0.02161278291961    1.48479462871714
N           5.41155484985911    1.40046515572003    4.77754336169604
N           6.42051439921916    0.66653088894583    5.07721364916704
C           7.14698347723222    1.03092025995465    6.15193395722498
C           7.16090755372051    2.18065909078843    6.94001929628589
C           8.20802917125968    2.05097475551271    7.85219123588157
C           8.81092344138531    0.83679591158298    7.61751886926145
N           8.17864964755402    0.21264000028908    6.59049632624884
C           8.50570876695484   -1.03430740353051    6.09706251365323
C           7.77159885176091   -1.85431495216437    5.29117076803950
C           8.44383037472448   -3.05871893694793    4.98971533753805
C           9.66556764633569   -3.14635036952974    5.56971836113958
S          10.04214077394955   -1.75047762933762    6.50279365420257
H           1.09181139082555    0.45871999611877   -1.10900177300415
H           1.45839061632399    1.93981125719505   -0.19067185711506
H           0.65026776879220    0.56271408430232    0.61284747892527
H           1.82001577452540    1.92158412033796    2.14560398512008
H           3.12885589114247    2.34706636185270    4.17454670653652
H           6.21966961424664   -0.23763265600955    2.77246120619367
H           4.90202533348632   -0.67168584222540    0.70899322006461
H           6.48330037710861    3.00272631096206    6.82831976678098
H           8.49720109460480    2.76056826429993    8.60214229514648
H           9.64274507176844    0.37592072761154    8.11420944358077
H           6.79304339051663   -1.59566425510193    4.93420249968452
H           8.02412876001463   -3.83093730327236    4.37028753984521
H          10.37843400712595   -3.94460274052239    5.51888134753641
