27
         -46.462783708647          0.000629763218
C           1.82666855108511   -0.55501768996433   -0.89109235976677
O           2.92594412089186   -0.10982304722629   -0.13132358477273
C           3.42447740107824   -0.91362223600226    0.83723417904588
C           4.51753866027516   -0.40175172245656    1.54857108079015
C           5.10232693301744   -1.13403626539838    2.55025811444552
C           4.61396531360701   -2.40848660448087    2.87622374679412
C           3.51813952191463   -2.91505494626088    2.16277196168523
C           2.93086667150921   -2.17990042273211    1.15841924258721
N           5.26295329012296   -3.07100240700716    3.88677289560802
N           4.81676099400812   -4.23985989929716    4.17009958266316
C           5.44646781961616   -4.91223608870580    5.15704330441873
C           6.52157326153028   -4.66808544555649    5.99584638557625
C           6.68557537400028   -5.79535816871782    6.81767365164651
C           5.72334321681299   -6.70836528544981    6.48081508882038
N           4.96345941426381   -6.18094911452417    5.47014846390470
C           3.93673444868774   -6.77240437420294    4.88021111048069
N           3.05268802090241   -7.30273038188452    4.38305714374399
H           1.61216962699286    0.24728888112279   -1.59515663883194
H           0.94825940687945   -0.72864599626210   -0.26197844013923
H           2.06521129750392   -1.46809325726196   -1.44501419219959
H           4.88123769514603    0.57856788993369    1.28392521300558
H           5.94463885375955   -0.74786603050128    3.10220877750618
H           3.14463877291415   -3.89516396471431    2.41849723001576
H           2.08911251023498   -2.59562898736438    0.62683678027964
H           7.10684526809819   -3.77118409103886    5.99633025727745
H           7.43192429813624   -5.92354377965895    7.57687441316699
H           5.51634925701015   -7.68482656438709    6.87321659225045
