36
         -62.015244954938          0.000175740298
C          -1.29776463541758   -0.05727391851886   -0.02114107229131
C          -0.40639545587442    1.02670772894160    0.11914521619519
C           0.82835268833618    0.47564139739708    0.28326531544181
O           0.76016067259851   -0.86160848195489    0.25351763478099
C          -0.53862157374725   -1.20171983993820    0.06777203985316
C          -0.89578493897147   -2.60046786097173   -0.00379507020031
C           0.09578300131259   -3.58437881945165    0.09250283453712
C          -0.22790458500520   -4.91755355798370    0.01393492332804
C          -1.56182548100035   -5.31480764868814   -0.14676216257013
C          -2.55809380628249   -4.32958509053805   -0.24286273552762
C          -2.22774372297555   -2.99845100188384   -0.17567699357427
N          -1.79629551758562   -6.66268701687715   -0.26342648192469
N          -3.01961459734529   -7.03070673853090   -0.15799704579829
C          -3.28326855479251   -8.34143256960399   -0.31617018370778
C          -2.49100076599149   -9.46613592891848   -0.54117037242200
C          -3.33620136201684  -10.57572837170564   -0.56133183865475
C          -4.61954343743155  -10.12398852047160   -0.35311148246923
N          -4.59600446967940   -8.77379370742400   -0.20422345162819
C          -5.70621972222601   -7.98327031367084    0.02788999815412
C          -6.94373953995644   -8.32108309487556    0.50860774449777
C          -7.68516647036610   -7.11608953182623    0.52975390314076
C          -6.84871617211359   -6.15022730994397    0.06480439921157
O          -5.64733614756461   -6.67050166021846   -0.24545662574634
H          -2.35587767174210    0.00626614529962   -0.16925371995788
H          -0.64942595134779    2.06935179809851    0.10036093538194
H           1.79616149278562    0.91481746194250    0.42514952210678
H           1.12303961389558   -3.27986214143209    0.22413494215243
H           0.53156342667570   -5.68063348544154    0.08729473325996
H          -3.57971594309389   -4.65007441456136   -0.38190869647079
H          -2.99982756955151   -2.24838712367479   -0.25528243501430
H          -1.42724899753337   -9.44728465076154   -0.66550551836826
H          -3.04843345019986  -11.59744429798990   -0.71340588392841
H          -5.54060633245207  -10.67052450971307   -0.31551629041806
H          -7.27805615436855   -9.28897337392333    0.81847877859960
H          -8.69889967001331   -6.99468641219114    0.85087308638138
H          -6.97967819895570   -5.09785313799560   -0.08655794634888
