29
         -48.013231683963          0.000414077222
C          -1.15296818150022   -0.02601657848443    0.04273608397728
N          -0.36307722583533    1.07166070629489    0.04442844060617
C           0.86226062753489    0.62934784694181   -0.02370517906818
N           0.90793023831358   -0.72154185577950   -0.05978096948779
H           1.72961196246089   -1.29743674329783   -0.13515156668369
C          -0.38980813312392   -1.17501940930595   -0.02308260806146
C          -0.76210067101170   -2.57008106567797   -0.04275475981209
C           0.16988439471057   -3.58323045711786    0.21298827811996
C          -0.19763791437588   -4.90770791059784    0.17604622084076
C          -1.52130643425797   -5.27113537194129   -0.10115972023776
C          -2.45974620993259   -4.25758346770770   -0.35302250337752
C          -2.08374270375475   -2.93742229051885   -0.32638223120955
N          -1.79251748095373   -6.61417666260075   -0.18031318364109
N          -3.02845207105587   -6.95137439146701   -0.12921553517957
C          -3.32113823236689   -8.25714591818100   -0.29543132610629
C          -2.58466914177119   -9.40471780226159   -0.59986545555494
C          -3.48402872213801  -10.46732174448233   -0.65360667189693
C          -4.74116584777088   -9.96305483234350   -0.38437658764557
N          -4.63378736710639   -8.63698498757313   -0.17338959225784
H          -5.37929474788449   -7.99817966082622    0.04890010621199
H          -2.21757739334362    0.07154088018618    0.10668399883715
H           1.73696330561973    1.24822996333571   -0.04803127172208
H           1.19307851885460   -3.33187107083259    0.45604605507733
H           0.51970295268915   -5.68852992600155    0.37701831855839
H          -3.47468452419740   -4.54354390352409   -0.58505305058521
H          -2.80872092471713   -2.16619461674761   -0.53730609715450
H          -1.52605477374365   -9.43371420552925   -0.76045357606065
H          -3.25088893973515  -11.49236933704041   -0.86530313443589
H          -5.68559435960665  -10.46912518691828   -0.33367248205037
