31
         -50.973436241694          0.000500514212
N           1.08255506923766   -0.04240940799923    0.10039139111683
C           2.44693387074523   -0.02386327406067   -0.04304921010183
C           3.20200728918899    1.03862203587678    0.46763140872815
C           4.57117112582096    1.03653057403275    0.36385474744076
C           5.24205562011576   -0.03737105618200   -0.23879245289051
C           4.48224760346949   -1.10527699311392   -0.74573856929181
C           3.11310488430079   -1.09364692006336   -0.65386868119476
N           6.60390062667989    0.06916151656061   -0.33966167692069
N           7.23647722025660   -0.99485634640848   -0.68253624175158
C           8.56080515363374   -0.87183017859492   -0.90692317137184
C           9.38832001762083    0.23506220975469   -1.07905477713056
C          10.65890332879009   -0.23861450766294   -1.41201744270462
C          10.59473814232261   -1.61138513324599   -1.43339803797953
N           9.32832987313142   -2.00532933967419   -1.13236731740221
C           8.90427808764198   -3.31522260798097   -1.04504632196942
C           7.75079092537421   -3.80540296523644   -0.50608672594303
C           7.66107571206034   -5.21055589349046   -0.60797725735343
C           8.73857932818779   -5.77142509542366   -1.20923506842227
S           9.90252413553152   -4.59427554852590   -1.68203874836582
H           0.62613261811017    0.82832891691481    0.31415380995469
H           0.56208162978913   -0.67888335689995   -0.47935015319139
H           2.69143050222452    1.86584457182534    0.94048772052018
H           5.15753616918988    1.85497257094597    0.75153048465897
H           4.99734646184733   -1.92135648112687   -1.23031788570506
H           2.53212676693642   -1.91142516892838   -1.05808529857622
H           9.06980665756944    1.25340562499861   -0.98386490630613
H          11.53009760658512    0.35272061364709   -1.61497330031100
H          11.36220214968622   -2.33272447277603   -1.63760949908389
H           7.00469616264633   -3.17579885259039   -0.06007113220618
H           6.82579301801252   -5.77794848316899   -0.23864421140446
H           8.93613224329427   -6.80586655140217   -1.40626147484201
