29
         -45.109859219867          0.000442671590
C           1.82945712663907    0.92558136984218    0.46337663143446
O           2.44712507362005   -0.13718232330257   -0.22063940369907
C           3.01877068835682    0.10795204292716   -1.43060288976486
C           3.04238384821142    1.34623250311032   -2.06864498352259
C           3.64689587537304    1.47500330631869   -3.30229809091043
C           4.25653465155822    0.38221906471186   -3.92361542319540
C           4.22624230189045   -0.86285486965344   -3.27375401766376
C           3.61446127977921   -0.99521149126408   -2.05333339207539
N           4.81074964548210    0.60491157072985   -5.16283556655838
N           5.54631175427922   -0.33951535103526   -5.62533734115502
C           6.05785115317027   -0.17930306784851   -6.86250079922321
C           5.91336937797041    0.77890435652051   -7.87066030375706
C           6.69189475546303    0.36090161694427   -8.94514941705089
C           7.29377351248880   -0.82886238464905   -8.57919463881773
N           6.90811265028196   -1.15302790309394   -7.33137254334132
C           7.31780989008774   -2.30074118425580   -6.57366698246730
H           1.45279526642704    0.49883467985265    1.39193123261779
H           0.99321942119505    1.34092680153096   -0.10883829187601
H           2.54312126402774    1.72307384319359    0.69534237024102
H           2.58967599960486    2.21311195797690   -1.61287682008515
H           3.66979155320757    2.43070971799097   -3.80279909978799
H           4.68429373562725   -1.71055309074553   -3.76014119077979
H           3.57654141293136   -1.94675921107964   -1.54537389160115
H           5.30367905854663    1.65706087655310   -7.80164410309922
H           6.80975154785449    0.86004708682711   -9.88711897477013
H           7.96611730811280   -1.45304678676245   -9.13671300106646
H           7.90868365758426   -2.96177632932707   -7.20524431510277
H           6.43998677662390   -2.83376168410177   -6.20625160900569
H           7.91468941360569   -1.99369511791051   -5.71228314391734
