24
         -38.110087107602          0.000478182071
H           1.19063399109615   -0.05241631296642    0.19100909873957
C           2.26343358908918   -0.02559675670673    0.06916773992178
C           3.00580626103579    0.98281379971734    0.66674926262585
C           4.37410934611806    1.02988612085731    0.50309350236648
C           5.02659508186022    0.04660722612756   -0.24931750635552
C           4.26822804343179   -0.96647449029360   -0.85121460926341
C           2.89903296317768   -0.99437753297807   -0.69311795450781
N           6.38429509902475    0.19231329335505   -0.42083142821672
N           7.03535702140106   -0.86213462315762   -0.74172050201938
C           8.34610155277428   -0.74539647765924   -1.02094910578725
C           9.26824242982852    0.30083780129198   -1.15380122497088
C          10.47839661975733   -0.26861476026752   -1.52069632356641
C          10.29552769160061   -1.64298629033239   -1.59579478254757
N           9.01729495506956   -1.91556064951927   -1.29906657685899
N           8.43999843984583   -3.17327567369668   -1.18954322039781
H           2.50859790476896    1.73848871317277    1.25748314246785
H           4.96727536362603    1.80617974961431    0.96133276485622
H           4.77460638866858   -1.70554495198646   -1.45508614842512
H           2.31883362332356   -1.77406306540034   -1.16622625731910
H           9.04681163239428    1.33686638734077   -0.99631309693035
H          11.39888915327530    0.24626717249051   -1.71313697743772
H          10.99032692236213   -2.41923282743962   -1.84880279308281
H           8.44204837850452   -3.65687054526493   -2.08635410510536
H           7.47892754796558   -3.01962530629864   -0.88179289818562
