22
         -38.865523281814          0.000232412709
H           1.13034727285893   -0.00994376364607    0.04338252263107
C           2.20694221087557    0.01808028276804   -0.03938454946210
C           2.85409041667519    1.22641717873191   -0.25260505341733
C           4.22815987318554    1.26561902070440   -0.36898464353516
C           4.97483193171124    0.08711193179335   -0.26046860719184
C           4.31368748936184   -1.12972791602326   -0.04330030077743
C           2.93992499836722   -1.15635512559450    0.06309629737845
N           6.33768025015940    0.21226654724148   -0.42584643654489
N           7.03451909136411   -0.82207001570622   -0.14511657814538
C           8.36580692394196   -0.74253259434594   -0.34998770422475
C           9.24396577585649    0.21607847290934   -0.86342141028318
C          10.52871787348657   -0.32220520909756   -0.83226508633934
C          10.44228026413705   -1.59626893744875   -0.30520720766409
N           9.14815749517662   -1.81721288791360   -0.03032990693429
F           8.68406121585081   -2.98139156957518    0.50815105856003
H           2.27996815187697    2.13804090990082   -0.33175195416315
H           4.75169339773007    2.19453951652809   -0.53441963943634
H           4.90163428043960   -2.03232647882653    0.02724366930049
H           2.43062740204793   -2.09546111052377    0.22526934840083
H           8.94600921981493    1.18366861702540   -1.21268652552520
H          11.43123865889734    0.15610358324447   -1.15728227757917
H          11.19411580618472   -2.33521045214589   -0.11528501504720
