33
         -55.592871576612          0.000811327736
C           2.46651364237847    0.31181318747574    1.19176738001689
O           2.74461877811266    0.11902954831151   -0.17419021095942
C           3.19236049517780    1.17237512057431   -0.90646253150750
C           3.39638288855060    2.45944818740919   -0.41334373201670
C           3.85584268455984    3.45315600016444   -1.25283024504313
C           4.12190400381390    3.19178475089311   -2.59920424314687
C           3.91356350998120    1.89132966234589   -3.08922662176630
C           3.45698608442514    0.90317041911176   -2.25582945441646
N           4.57764602845857    4.24969393149554   -3.35207920683404
N           4.81192161540515    3.98969806796614   -4.58558062563098
C           5.22813499520488    5.00898037773427   -5.36215732394541
C           5.35872752282121    6.38144785213675   -5.16379347472780
C           5.76320633702769    6.94292924462961   -6.37615044636797
C           5.87660647688726    5.92106401604077   -7.28965694101743
N           5.55272153386248    4.74750670327150   -6.68429348255913
C           5.55327963087251    3.51110624514370   -7.30202622819586
C           5.51415264983233    3.18965900730965   -8.63318954417740
C           5.54536676663421    1.77595090713144   -8.68423746092383
C           5.60072068904768    1.35258986840722   -7.39316298165979
O           5.60895723525014    2.40107437256729   -6.54959312033713
H           2.13432419310148   -0.65593610979632    1.56433589178632
H           1.67056780973122    1.04856563106180    1.34029758394908
H           3.35917517934906    0.62410053850847    1.74329690229473
H           3.19934821756869    2.69398011373448    0.62112745432974
H           4.01738004169549    4.45316074137071   -0.88074630889080
H           4.12507933145791    1.69481164348305   -4.12918065721196
H           3.29095873379819   -0.10149275797530   -2.61375553621685
H           5.16632251821610    6.88515349297569   -4.23837023160431
H           5.95480253414529    7.98041433049275   -6.56806687009937
H           6.17678632457303    5.95052602141025   -8.31784000077248
H           5.45704769598884    3.86332202106913   -9.46193915826674
H           5.52718621118037    1.16682379635437   -9.56413562925728
H           5.63637764088974    0.37471306719209   -6.95679294482606
