23
         -42.568473404499          0.000506413494
N           1.12258647845835   -0.05438766221948    0.22225662503460
C           2.47817548430965   -0.04358089026243    0.08604808096139
C           3.15998281046626    1.15609039990836   -0.16443468096128
C           4.52800218376482    1.17286913365940   -0.26069839340632
C           5.27025203542237   -0.00933443955084   -0.10897199413268
C           4.58487120569872   -1.21190960475732    0.14880599401033
C           3.21870073114634   -1.22598028355618    0.24262621211174
N           6.62405773312707    0.10482245592558   -0.23966708647625
N           7.31021708355859   -0.96740672669868   -0.08046173508758
C           8.64955611055188   -0.84440540253606   -0.24386364738900
C           9.54676668143781    0.16215067128400   -0.62353138135154
C          10.79841113329809   -0.44193358659400   -0.60420535204444
N          10.71664521881395   -1.71919892558572   -0.24439389483479
N           9.44634270095576   -1.92248737491163   -0.04519186297173
F           9.02377718149653   -3.15151714265052    0.34960389334989
H           0.59815770971844    0.75274213732893   -0.06620345557017
H           0.64174313695755   -0.93681490794158    0.23176190883083
H           2.59155883146051    2.06764191039493   -0.28210515086140
H           5.05982347499808    2.09098018386071   -0.45608276378542
H           5.16197601624201   -2.11665425274406    0.26379946937732
H           2.69327727785925   -2.15052717007445    0.43738134469666
H           9.29267363269527    1.17088636964874   -0.87302534034043
H          11.75579514756251   -0.01837489192751   -0.83294678915969
