35
         -61.913183184031          0.000297244961
C          -1.17583769782502   -0.06204669759633   -0.28435999537461
C          -0.34878417219630    1.01924021774103   -0.13292646239254
C           0.88896657034132    0.46657032039904    0.24399817102898
N           0.81834037565623   -0.84157099486686    0.31258607534962
N          -0.43882803420515   -1.17035538096486   -0.00709773125216
C          -0.83141704644240   -2.50574691823677   -0.02168239555988
C           0.13325215072140   -3.48800767802674    0.21806384142207
C          -0.21262637020239   -4.81791283358698    0.20130411133805
C          -1.53867464439321   -5.20201307194478   -0.03881988443213
C          -2.50336956589508   -4.21032411932668   -0.27349247885882
C          -2.15406958854352   -2.88070652317608   -0.26920851850308
N          -1.79618237933006   -6.55037647930518   -0.08001273151269
N          -3.02958206720572   -6.88704651895435   -0.07375416886565
C          -3.30048772065797   -8.20353706784381   -0.20484842223668
C          -2.54672680812524   -9.33822437074397   -0.51707720715255
C          -3.46910233422332  -10.37831963903802   -0.54885273014761
N          -4.69346813777729   -9.95052088534474   -0.27757735007694
N          -4.59812219040039   -8.64104141796263   -0.07612495318912
C          -5.72528202839190   -7.91253637708536    0.24126255269495
C          -7.01331222747869   -8.34905464921621    0.40473877107146
C          -7.76264747650112   -7.19220529757103    0.71857412918791
C          -6.87978739551181   -6.15652905488508    0.72108180855839
O          -5.63700997585593   -6.58734497979153    0.43048233876936
H          -2.20577387956208   -0.10672894375508   -0.57037719090517
H          -0.58934977600011    2.05307623174665   -0.27048753056913
H           1.80839362083632    0.97217107102466    0.46219329407937
H           1.14592384668743   -3.17189583882279    0.41003247481444
H           0.52292084973435   -5.58534160268817    0.38388651135703
H          -3.51994897211319   -4.51963677193577   -0.46343706300655
H          -2.91121851901487   -2.13498674207797   -0.45496418070091
H          -1.49283213706933   -9.36816542991878   -0.69709678871475
H          -3.30269043101798  -11.41728844611738   -0.75388528372448
H          -7.35446972246688   -9.35753240069643    0.30951270456839
H          -8.81352939463040   -7.14364990059688    0.91535288071598
H          -7.00040672093999   -5.10848080883439    0.90781340221942
