30
         -51.201278723970          0.000437833372
C          -1.18127798291673   -0.09511433166574   -0.01530134951395
C          -0.44678121137848    1.10292785834418    0.04478969846882
C           0.89209543025958    0.89167300529530    0.14190347810237
S           1.28290106491864   -0.77715724533133    0.16862925632142
C          -0.39921045949901   -1.22122381311411    0.04018586721249
C          -0.79619214947165   -2.60834192488208    0.00195468954620
C           0.14238660581873   -3.62699450061041    0.21081275703484
C          -0.22298933406820   -4.95007212327306    0.16507524971842
C          -1.55483331718039   -5.31052453883223   -0.08083275940195
C          -2.49908206260426   -4.29370360748217   -0.29471219812255
C          -2.12544371820006   -2.97357894904939   -0.25553291170259
N          -1.82258051276871   -6.65415094851551   -0.15058618693281
N          -3.05731851285720   -6.99501982438636   -0.15434632156971
C          -3.33527668927420   -8.30560365767910   -0.31644842466193
C          -2.63174776753370   -9.47752895663450   -0.64795532549937
C          -3.60536534308658  -10.45129488896156   -0.74696085236761
N          -4.82364757361774   -9.95206411618451   -0.49674429822214
N          -4.64409121073818   -8.68391326159496   -0.24360448527188
N          -5.67778082447698   -7.86737772706816    0.14567387411567
H          -2.25346193490147   -0.11633796058584   -0.08640056138854
H          -0.89523802060396    2.08000180766774    0.01542392287280
H           1.67956852247311    1.61646857400959    0.20066588583772
H           1.17058322234830   -3.35956825329954    0.40885573950140
H           0.50015252786179   -5.73390332467530    0.32786742239296
H          -3.52138249543924   -4.57151895492271   -0.50421455573655
H          -2.86542963939910   -2.20850613102765   -0.43380099083500
H          -1.57622983469587   -9.56296650966754   -0.79651357625188
H          -3.50253536724391  -11.48985621739254   -0.98942147433504
H          -6.54207660319903   -8.14991866227797   -0.30448656961914
H          -5.42329480852569   -6.90187081620300   -0.04343499969240
