25
         -41.811948450049          0.000595042441
N           1.24001618528819   -0.10396241987824    0.10310686488527
C           2.60202013669816   -0.07269283653402   -0.03213992434341
C           3.27125342606374    1.14145080368197   -0.22868710583462
C           4.64080004160258    1.17768608038316   -0.31660481884917
C           5.39792127306089    0.00291800713320   -0.20013458819315
C           4.72378791875837   -1.21354281760456    0.00225992394126
C           3.35493946220895   -1.24927118474386    0.07962643101342
N           6.75390159179090    0.14164990220934   -0.33012403493572
N           7.46831941972215   -0.89916765078181   -0.10260870910642
C           8.80007516042060   -0.78282210523579   -0.31097554538305
C           9.67306750052807    0.14121863334808   -0.90797323697944
C          10.90937394666032   -0.47608327677141   -0.87470175727619
N          10.83870757696777   -1.68316407920769   -0.30110543874724
N           9.58183419088703   -1.84682085605080    0.02462472613615
N           9.14584150873421   -2.95111411254559    0.72237995757749
H           0.71716280335737    0.69921499355316   -0.20126624428155
H           0.77788491653177   -0.99342434447770    0.02317573663152
H           2.69416551787366    2.05136217563833   -0.31364308114396
H           5.16210603503880    2.10943103657669   -0.47116558277654
H           5.30427124116926   -2.12028020575622    0.08233694614837
H           2.84055024682746   -2.18906182906571    0.22680454464995
H           9.40885905358295    1.09794968597193   -1.30619302104772
H          11.85311767032094   -0.12063319187522   -1.23722140050854
H           9.64491999556101   -3.78072932028289    0.41652716897207
H           8.13956318034507   -3.02797108768523    0.59398218945082
