30
         -51.667374747241          0.000575623673
C          -1.17108812764284   -0.05411135330539   -0.26454699608406
C          -0.33944669720482    1.02447781247096   -0.11569526497843
C           0.90434106624416    0.46556771768518    0.22906222781487
N           0.83225856990760   -0.84346446639269    0.28480139801276
N          -0.43086796339736   -1.16638139824340   -0.01528964939070
C          -0.82467759998999   -2.50199764739390   -0.04052659474619
C           0.12163066683368   -3.48383507078909    0.26488363159970
C          -0.22386956954263   -4.81324086709397    0.23725450794467
C          -1.53359794366763   -5.20131509683267   -0.07697317643316
C          -2.47696401735121   -4.20960732495820   -0.38307384417459
C          -2.12739770830470   -2.87921725475296   -0.36999194942847
N          -1.78035255977445   -6.55014558308765   -0.12970801200686
N          -3.00572250937488   -6.91637523236366   -0.11338702971375
C          -3.25822458948648   -8.23306568888661   -0.27133275945909
C          -2.53830523545722   -9.38288911180188   -0.64274939750467
C          -3.48890570652874  -10.38182321943450   -0.70882757149201
N          -4.70802858333749   -9.91739996627206   -0.40172828772534
N          -4.55235079985466   -8.64670119858510   -0.14714804285080
N          -5.58861417582401   -7.86331037950776    0.29768889941196
H          -2.20870174427907   -0.09310933866162   -0.52250148367893
H          -0.58152227977737    2.06026962047750   -0.23491828729748
H           1.82938897929171    0.96657326389163    0.43370536170734
H           1.12201243825698   -3.16807364214368    0.51329395875111
H           0.49804834636316   -5.57947990195044    0.47133002008177
H          -3.47980038426284   -4.51016368275286   -0.64685482323788
H          -2.86989033603687   -2.13689298350385   -0.61829287188986
H          -1.48848309892350   -9.43783316200157   -0.83832594851670
H          -3.36918320097289  -11.41526697349704   -0.96472974076926
H          -6.46753129741879   -8.17764484914353   -0.10071762586151
H          -5.37841393848724   -6.88990302116952    0.09681935191565
