30
         -52.028663781376          0.000482518897
C          -1.17511150536804   -0.01743986647396   -0.29569061397360
C          -0.29072316171227    1.06337312972074   -0.10083117486477
C           0.88950431748605    0.51225414321814    0.29861933256733
O           0.79441631232790   -0.82161039769948    0.36274691883296
C          -0.46696133922801   -1.15999904728720    0.00099618771048
C          -0.84368425603969   -2.55461965886171   -0.01813698138493
C           0.09063357696881   -3.54191682083669    0.31957658174903
C          -0.25153478056895   -4.87203538996679    0.29114735779808
C          -1.55164863425103   -5.26351089301115   -0.05732328195661
C          -2.48882340444504   -4.27424740591217   -0.39688436600485
C          -2.13824612798165   -2.94673153520676   -0.38051322356572
N          -1.79370530007014   -6.61176021709549   -0.11094752306083
N          -3.01827572681411   -6.98259754698362   -0.12131187317963
C          -3.26485500767680   -8.29955912037894   -0.28844303895561
C          -2.53844920181317   -9.44773863780150   -0.65119988863163
C          -3.48845649727843  -10.44589174526694   -0.74024988122029
N          -4.71290761433562   -9.98276594024649   -0.45420684643375
N          -4.56100107493010   -8.71305929715371   -0.19055812319160
N          -5.60360851593797   -7.92862145272249    0.23833481825861
H          -2.19533496247863    0.04703600901599   -0.61286569500193
H          -0.50246945997400    2.10379252138020   -0.23866583917139
H           1.83359276918743    0.95006504736679    0.55675850017975
H           1.08982749666861   -3.24276452243381    0.59728021561774
H           0.46330744227912   -5.63743889789198    0.55046762451501
H          -3.48297027084947   -4.58038017139293   -0.68720150301793
H          -2.86595861938467   -2.19660831938681   -0.64938267784525
H          -1.48511700763959   -9.50338908612915   -0.82683674032177
H          -3.36395191307772  -11.47809364233252   -0.99907718379436
H          -6.47178983226096   -8.21883170377662   -0.19912837563918
H          -5.37147770080433   -6.95376953445151    0.06887729398652
