30
         -51.717066425277          0.000803295943
N           1.15684332763498   -0.06346574098321    0.42556086895853
C           2.50483784200769   -0.03983481177811    0.21031958612801
C           3.23199806898695    1.14710640120254    0.37080823098501
C           4.59351776031853    1.15936301181525    0.20147887002226
C           5.28564139594870   -0.01836113323401   -0.11997458740448
C           4.55330527735837   -1.20773592823018   -0.28553649989686
C           3.19203766425613   -1.21503941894415   -0.12772567831128
N           6.63803324998723    0.09523874462756   -0.28287044433776
N           7.29846768055944   -0.99798607431973   -0.39695912554362
C           8.62183770008711   -0.87255817826380   -0.65318143007086
C           9.44619820023769    0.17403513519645   -1.07508368580919
C          10.69757785773195   -0.40572284696582   -1.24948816459701
N          10.67858546779203   -1.69903920112406   -0.95954526449760
N           9.42417906548637   -1.98189758197775   -0.60584886358433
C           9.09293335881904   -3.26362935397907   -0.22477432453834
C           7.94775031407861   -3.84598125633077    0.26149268219731
N           8.17154795925220   -5.16663385211084    0.47280327606280
C           9.41034090388936   -5.38988504778267    0.13393468129968
N          10.02376958344898   -4.26270174895509   -0.30044650034418
H          10.96972090359622   -4.12068059216380   -0.61666376249734
H           0.66044570488188    0.80935518594795    0.46868837097678
H           0.63643113464957   -0.86851387288397    0.12281306255719
H           2.70472382059838    2.05464467325263    0.62842206990118
H           5.15910626891457    2.06968520258024    0.32347230151878
H           5.08520331876206   -2.10722597988751   -0.55641708352319
H           2.63175705382431   -2.12953089243790   -0.26335271235616
H           9.15038634874763    1.18916223494097   -1.23613510694333
H          11.61228949703633    0.05408384257565   -1.56876961035478
H           7.00349024756062   -3.39078189736166    0.47071714491657
H           9.89806302354752   -6.34191902242540    0.18740169908735
