29
         -52.790836291738          0.000626948231
C          -1.17555801581628   -0.02407582317627   -0.00292585459300
N          -0.39159648013174    1.07355986745020   -0.01341248260991
C           0.83817370508654    0.63543603422159   -0.04573037136741
N           0.89140179333306   -0.71394336919560   -0.04896151059864
H           1.72117653242149   -1.28187681426532   -0.08702389588110
C          -0.40504669042173   -1.17448604154001   -0.02555958466476
C          -0.77547114944603   -2.56612256820197   -0.02555757713031
C           0.17821261591665   -3.58334836755168    0.12476529258438
C          -0.19254245833076   -4.90606948013554    0.10406598828276
C          -1.53766627871945   -5.26374272614970   -0.06398080139664
C          -2.50095061826990   -4.24803765039263   -0.20162759621422
C          -2.12237762167266   -2.93053720548847   -0.18281844637108
N          -1.80831949250934   -6.60534392517444   -0.10146709116315
N          -3.04375177311853   -6.92929045486954   -0.19297946066853
C          -3.32178284475846   -8.24712442969598   -0.30885542919617
C          -2.60435437881411   -9.40939284595658   -0.56186160164097
C          -3.57063045705193  -10.42132126600460   -0.62952593207798
N          -4.78519969962806   -9.95571190826173   -0.43613112468644
N          -4.64961160732711   -8.63624994678414   -0.24836781970149
C          -5.67510782337135   -7.82387161573817   -0.02099250002046
N          -6.54483605291525   -7.10740394970007    0.17432701463825
H          -2.24142250699027    0.07323082007505    0.03221096911136
H           1.70946386722156    1.25910041246131   -0.06677514574106
H           1.22059619201139   -3.33693200946275    0.26774941337926
H           0.53847235760191   -5.69147254100208    0.21876255711186
H          -3.53495595984716   -4.53186924677688   -0.32648974859460
H          -2.86518319228506   -2.15736945256695   -0.29908520437353
H          -1.54495913391950   -9.49044618820087   -0.68536788349040
H          -3.42648282824805  -11.46869730791608   -0.80826417292589
