29
         -53.138651080730          0.000490146626
C          -1.16456467348787    0.00805799192461   -0.23254017952804
C          -0.26409917444732    1.08131731627298   -0.08644991965511
C           0.93758754800971    0.51981614543296    0.23095452987178
O           0.84031756254570   -0.81247191451332    0.28917503070245
C          -0.44393683801717   -1.14207465056188    0.00749148320966
C          -0.82843840409176   -2.53224940208048   -0.00140481596272
C           0.12473341662195   -3.52730813708615    0.25642616379742
C          -0.22727549841606   -4.85452267364888    0.24093483872475
C          -1.55184865493491   -5.23215377993016   -0.02664082130171
C          -2.51132646666215   -4.23509292046959   -0.28077921452927
C          -2.15224728628320   -2.91165101160315   -0.26938425213026
N          -1.80782698669678   -6.57674399107783   -0.04328928404504
N          -3.03188547794661   -6.91983553961291   -0.19263542174461
C          -3.28619447253563   -8.24287281976956   -0.30204783628348
C          -2.54281087277060   -9.39054808329622   -0.54654052131812
C          -3.48829260946867  -10.42052818098878   -0.63268307773515
N          -4.71446115648638   -9.97941876622265   -0.45647312255788
N          -4.60739938420404   -8.65719069466873   -0.26493790432483
C          -5.65157069569686   -7.86607844320166   -0.04943826097712
N          -6.53871020105885   -7.16802942346697    0.13456225811007
H          -2.20273767657860    0.07984704618205   -0.48244863556019
H          -0.47817214867675    2.12388779410621   -0.20122419820365
H           1.89827088201916    0.95185096260422    0.43143087665237
H           1.14228036855335   -3.23411267212056    0.46480135701257
H           0.49883256858543   -5.62810951918635    0.43711289158994
H          -3.52689880904226   -4.53917269057138   -0.48526089080080
H          -2.89324433713847   -2.15320474873816   -0.46732124008839
H          -1.48022422531354   -9.44969538191811   -0.65418801929981
H          -3.32088629638128  -11.46441181178953   -0.81162181362505
