28
         -52.435615291648          0.000480577023
C          -1.14711959230027   -0.01706597730816    0.00852845982870
N          -0.35833965853106    1.07792197417860    0.01374318433836
C           0.86940464537448    0.63484211718471   -0.01555177790807
N           0.91663451837470   -0.71484037519090   -0.03188151780309
H           1.74317956051942   -1.28708820506475   -0.07337035468416
C          -0.38182173765191   -1.16982838720048   -0.02098894254736
C          -0.75796993802143   -2.56083214112633   -0.03155050117111
C           0.19104603814342   -3.58251657250832    0.11164874619097
C          -0.18518932593930   -4.90398775412535    0.08286315729971
C          -1.53143194780936   -5.25569248786517   -0.08315889824235
C          -2.48952600395315   -4.23559031405457   -0.21503816297065
C          -2.10565888467287   -2.91918556664630   -0.19117403669959
N          -1.80467952821649   -6.59746963289443   -0.13871119636672
N          -3.04016510041088   -6.92466763342054   -0.19843999117489
C          -3.30580514870048   -8.24721118210064   -0.30827910282468
C          -2.57033120348683   -9.43224063336532   -0.44652445865876
C          -3.52258912629273  -10.43949884360520   -0.53970792514468
N          -4.75676974255640   -9.94883697567867   -0.46731304158192
N          -4.59519381104889   -8.66694635258889   -0.33484775823147
F          -5.68320766605990   -7.86495727874739   -0.22769116010933
H          -2.21280546057819    0.08430142715586    0.03689130474272
H           1.74353248931744    1.25485109589410   -0.02381035408998
H           1.23477128363725   -3.34176950552104    0.25476852237880
H           0.54292167889355   -5.69273134390034    0.19262701710372
H          -3.52391672722173   -4.51432331402668   -0.34602382767931
H          -2.84504707323608   -2.14232198035727   -0.30574091533364
H          -1.50416400378017   -9.51282373951782   -0.47462716353297
H          -3.38012853379231  -11.49485041759842   -0.65690930512804
