30
         -51.237706351696          0.000774486721
N           1.13280906693727   -0.12590944303357    0.25455296653576
C           2.48541953491960   -0.10331065433210    0.07199000068425
C           3.27294049116321    0.87506325952141    0.69498274172596
C           4.63618396296740    0.87125156805713    0.54494372085823
C           5.27147425828276   -0.12126758331499   -0.21977104082654
C           4.47959410930983   -1.10245629306422   -0.84417449618826
C           3.11637341261585   -1.08718795316263   -0.70348875679638
N           6.62730377000280   -0.01886173010250   -0.32553361538296
N           7.26351294259155   -0.98723723360249   -0.86583423006186
C           8.59258823101339   -0.83525524219394   -1.04693352365067
C           9.50639383800997    0.21953365020422   -0.99165933557990
C          10.71407912986569   -0.34570277919093   -1.38853070070882
N          10.58494901419613   -1.63708415345966   -1.66332551669680
N           9.30656533636602   -1.92828826503241   -1.46409433225930
C           8.79247749998586   -3.19045261215117   -1.63824526844581
C           9.46041501578550   -4.30796694800457   -2.04847092913598
C           8.61127500940063   -5.43196153987936   -2.12110196031499
C           7.33447454506960   -5.14726746067808   -1.76256204925332
S           7.11811872055368   -3.48910634743537   -1.32598372281949
H           0.68652186499988    0.68884426331383    0.63875740627818
H           0.57673423301689   -0.70403273707874   -0.35149980177948
H           2.79022606001577    1.63537653523133    1.29253566942012
H           5.24828245128178    1.62216944056683    1.01977805674970
H           4.96503407087993   -1.85447624118431   -1.44589730833111
H           2.50986953716784   -1.83638746333676   -1.19294507870691
H           9.29768478999868    1.23105253142606   -0.71411035556797
H          11.67312219124940    0.12388648520239   -1.48524975860264
H          10.50820066505084   -4.30679419654959   -2.28251689555968
H           8.94689588337888   -6.40716259210861   -2.42556332691208
H           6.49339036392322   -5.81075826462733   -1.73332855867130
