35
         -62.274327112116          0.000909072563
C          -1.15524232446703   -0.00596949474403   -0.27746608441562
C          -0.26284852662294    1.06370076946565   -0.06011882740456
C           0.90645780446252    0.49669391413048    0.34999991288694
O           0.79726775521932   -0.83626904323179    0.39941692968954
C          -0.46278177935482   -1.15879555562643    0.01792910776116
C          -0.85101478786183   -2.54982406224214   -0.01503392110156
C           0.08477493636745   -3.54521853417968    0.29441223743279
C          -0.26684376702449   -4.87275541208100    0.26168554142193
C          -1.57730881502764   -5.24991221596385   -0.06244877555427
C          -2.51766669790522   -4.25382540660200   -0.37431615697725
C          -2.15652787731844   -2.92936848634301   -0.35505483647455
N          -1.83489795071547   -6.59629195469725   -0.09938657086421
N          -3.06649549447174   -6.94008409893218   -0.14057131523860
C          -3.31833007287975   -8.26181394581462   -0.26501366573199
C          -2.54250749302187   -9.38613219378514   -0.55897771105637
C          -3.44707715712951  -10.44196563962235   -0.59258284623938
N          -4.68137430999028  -10.03258414795425   -0.34018380130653
N          -4.60990530394489   -8.71920445420802   -0.14952901219218
C          -5.75163175575241   -8.00926920894853    0.15737435277766
C          -7.03125116141254   -8.46972185930842    0.32145274260809
C          -7.80363531248639   -7.32529090730211    0.62480613286965
C          -6.94139239016809   -6.27230827018702    0.61913349586591
O          -5.68960034145450   -6.68144687867951    0.33661661065677
H          -2.16970588919324    0.07141797469296   -0.60988897627336
H          -0.46176821957393    2.10762607322722   -0.19064039950264
H           1.85086460997595    0.92254381929996    0.62661533650969
H           1.09071300459815   -3.25347763141331    0.55509385899461
H           0.44760038319287   -5.64555433597667    0.49976852430435
H          -3.51986072616636   -4.56028548654610   -0.63408777875135
H          -2.88349587093810   -2.17036376970452   -0.60015253300222
H          -1.48626606680755   -9.40004583181268   -0.72695587033163
H          -3.26056023932275  -11.47985623817144   -0.78579496146533
H          -7.35192008598416   -9.48562565894323    0.23406824265621
H          -8.85554116719169   -7.29601287405737    0.82013117300881
H          -7.08271690962903   -5.22512895373734    0.79598984443901
