28
         -47.795870159707          0.000531807878
H           1.10556245469649   -0.17805121425601    0.52195863337569
C           2.17604904466339   -0.14837998932723    0.38279873863692
C           2.93598615176395    0.79713595795469    1.05732682875573
C           4.30109233497636    0.84986637294209    0.87103762178670
C           4.92807479988191   -0.06888816456099    0.01991386284881
C           4.15434989670167   -1.02096168432353   -0.65835660271410
C           2.78817448849741   -1.05004348186093   -0.47668987243209
N           6.28276820041152    0.08246655075848   -0.15171783334543
N           6.93319334157951   -0.91399739020825   -0.59888615019552
C           8.24285206505023   -0.75157614768539   -0.87358846459951
C           9.12768480163293    0.32361342054224   -0.99944702663818
C          10.32884261118805   -0.25964547916290   -1.38501909283085
N          10.22151275276643   -1.57950238389313   -1.48704184646247
N           8.96776265656704   -1.87362222271631   -1.18694503464921
C           8.48654852126936   -3.16166281242458   -1.17483372928246
C           9.18127782606299   -4.30220726185072   -1.46174666755839
C           8.37116629626681   -5.45122655460904   -1.35804904152905
C           7.09618754700434   -5.16150271377214   -0.99447239444248
S           6.83428815169510   -3.47065307486938   -0.76564077973127
H           2.45600270759484    1.49799128233976    1.72462700722142
H           4.91067810324987    1.57532139958271    1.38720975587378
H           4.64632255546835   -1.70718603134260   -1.33085257536847
H           2.19137244256334   -1.77802194404796   -1.00694836001157
H           8.90244431007903    1.35697970397366   -0.84067899030683
H          11.26843037063717    0.21337910075002   -1.59154706515043
H          10.22027135560752   -4.29774914316689   -1.73216197278628
H           8.73062906000365   -6.44701505760478   -1.54481265786951
H           6.28123515212081   -5.84217103716025   -0.84946629059414
