31
         -51.431119213287          0.000952081329
C          -1.14408697173846   -0.03955695421628   -0.26446772620574
C          -0.30901176115527    1.03178697838388   -0.08637256779633
C           0.92678000260833    0.46047101857361    0.26708096321201
N           0.84708874902551   -0.84869209140303    0.30003871562168
N          -0.41347825186064   -1.15977352574473   -0.02322405048533
C          -0.81596687466526   -2.49224897266360   -0.06512093875411
C           0.11970092570152   -3.48203156328316    0.24781430477443
C          -0.23517892796708   -4.80871482881713    0.21222649935743
C          -1.54572663862776   -5.18440333969121   -0.11306012273737
C          -2.47821895224050   -4.18606491980536   -0.42999873217042
C          -2.11700732066303   -2.85865653343572   -0.41345397098680
N          -1.80856102317910   -6.52974973886716   -0.17334557672017
N          -3.03397907075661   -6.88467366448366   -0.11974428370590
C          -3.28926888582110   -8.20686544809382   -0.27294049580180
C          -2.53508610327290   -9.33432464903232   -0.62471012493148
C          -3.45417685950536  -10.37392245801739   -0.63023571480909
N          -4.67077092759294   -9.94177807422361   -0.30838055056900
N          -4.56783361105297   -8.64649954601133   -0.10116253605923
C          -5.70097085196832   -7.85806751451861    0.28220255671232
H          -2.17792342916913   -0.06909035148541   -0.53822577982075
H          -0.54378869567186    2.07070317058256   -0.19127100858733
H           1.85156261639630    0.95254586926860    0.49327190058275
H           1.11947745449842   -3.17497714161837    0.50938938040311
H           0.47867167431429   -5.58026476870915    0.45357756966049
H          -3.47960331173571   -4.48224850966401   -0.70403306118098
H          -2.84994043927169   -2.11035109581224   -0.67188090339237
H          -1.48814501868244   -9.36041422837704   -0.84239880831502
H          -3.29672080779934  -11.41119756330856   -0.84978499572594
H          -6.57231845429970   -8.50908497659630    0.28560819169944
H          -5.84609120333750   -7.04164240995059   -0.42587905119886
H          -5.55061703050960   -7.43526216897869    1.27674091793043
