30
         -52.058445234872          0.000758530035
N           1.15785478105860   -0.18393052031988    0.34394994952261
C           2.51092131669434   -0.15612272028630    0.15382366936644
C           3.25158609861864    0.98934796853280    0.47345155600569
C           4.61661017901171    1.00050073399945    0.32845419500067
C           5.29358862072107   -0.13326825427551   -0.14423310556030
C           4.54953883131443   -1.28537853431974   -0.45840318227855
C           3.18718848768149   -1.29383841127340   -0.31140395694624
N           6.65182579473964   -0.02535338475395   -0.27398450577719
N           7.25878505749886   -1.06490640791854   -0.71760587133105
C           8.59469003835220   -0.95307167571682   -0.89282665078504
C           9.51501559357151    0.09486385290427   -0.83416269548623
C          10.72965083118527   -0.47811325218804   -1.19953827575562
N          10.60053676181601   -1.76893779702696   -1.46234091234516
N           9.31300612742565   -2.05881707815590   -1.28204624358108
C           8.86758152039221   -3.34883160342093   -1.47656238569422
C           9.55978488351822   -4.43582258414195   -1.94017510123640
C           8.62948950393361   -5.50075382663900   -1.93764093587280
C           7.45923513860540   -4.98187740257643   -1.47695493041258
O           7.59679928616281   -3.67160031562143   -1.19298777614366
H           0.67831388750199    0.68842455458744    0.48245821757792
H           0.63061828991740   -0.92973754926515   -0.07550671600727
H           2.73306212485507    1.86583777930571    0.83498457875863
H           5.19269919594821    1.88040695217522    0.56932332265748
H           5.08225324290969   -2.15313886041871   -0.81663221004072
H           2.61502686727093   -2.17934202651622   -0.55375938892080
H           9.30352629000041    1.10987702632150   -0.57125137509942
H          11.69241750202564   -0.01311567184530   -1.28158416553431
H          10.58675004156341   -4.44990443638263   -2.23607020039147
H           8.81222517421827   -6.51176880165720   -2.23798929093322
H           6.49501853148763   -5.41775775310844   -1.30840561275395
