26
         -41.575990231866          0.000877530600
N           1.11755959965734    0.03913551956252    0.07908679070153
C           2.47856365953578    0.05208961648883   -0.06341886205483
C           3.15219137935421    1.24235318516916   -0.36540461120749
C           4.52170847940425    1.26515686189983   -0.45855855905180
C           5.27269413335537    0.09985161462152   -0.24747751099870
C           4.59493677333465   -1.09271708483452    0.06032439383672
C           3.22669718091881   -1.11439821183020    0.14718159327962
N           6.63027778731734    0.21968107850827   -0.38279339686436
N           7.32783321780712   -0.82463782264101   -0.12319544032830
C           8.66732221729158   -0.71026530875197   -0.30539692169820
C           9.52309299983699    0.26171805844955   -0.83763389142578
C          10.78576507231907   -0.31060831441686   -0.75847744266177
N          10.73185867185405   -1.52639842613157   -0.22317230884203
N           9.46015382421734   -1.76200873448104    0.03985748634021
C           9.03892158665909   -2.98728458509352    0.65057828505427
H           0.59588456869565    0.81521220257642   -0.29117763250629
H           0.65130320151444   -0.85219249126740    0.07970667994401
H           2.57823653237201    2.14381133729150   -0.52715292623896
H           5.04636641951214    2.17792447295223   -0.69422784246037
H           5.17587251823375   -1.98875884253410    0.21714896267337
H           2.70780346847949   -2.03488603763499    0.37804349334720
H           9.24162127561031    1.21961201989950   -1.22168447657308
H          11.72971720136892    0.09724541258860   -1.06257050829674
H           9.87327365094280   -3.68462986449704    0.61242702230240
H           8.18162004608748   -3.39045273467807    0.11198666583369
H           8.75132453431952   -2.81835292121610    1.69096095789489
