21
         -39.125662584871          0.000334359120
H           1.02408420956223    0.08031539060637    0.10559233622782
C           2.10131808521092    0.10231252721831    0.03156422063345
C           2.75595836098026    1.30842161379730   -0.17314367857844
C           4.13091463678851    1.33975606621907   -0.27943998287183
C           4.86806623507567    0.15448031170427   -0.17132044943846
C           4.19975268794560   -1.06043648386818    0.03953934707443
C           2.82544154736539   -1.07808294245399    0.13650460512557
N           6.23117972838781    0.27609239291023   -0.32184845350171
N           6.92314999498727   -0.77025895760763   -0.09143575983025
C           8.25914312069671   -0.66758624379192   -0.29138017533692
C           9.15171579501018    0.29294816842636   -0.78514003083665
C          10.40014973862764   -0.31455613179568   -0.73411890661242
N          10.31846259260980   -1.55079096104592   -0.24996035061167
N           9.05593594182163   -1.72733037136762   -0.00597101905542
F           8.63446251686928   -2.90723442230138    0.51166779401230
H           2.18736377102646    2.22299368977602   -0.25430922905966
H           4.66246527836186    2.26508523412859   -0.43845155329096
H           4.78215597265371   -1.96629045458475    0.11371583587188
H           2.30864614048951   -2.01354167311426    0.29357944356738
H           8.89740926598020    1.27419477271826   -1.12630350710539
H          11.35454437954876    0.07758847442570   -1.02230048638299
