31
         -51.444936629281          0.000247964085
C          -1.16786369886154   -0.03269869215594    0.02674935543316
N          -0.37847153071989    1.06377288523235    0.04255238795540
C           0.84826549808591    0.62127404987129   -0.00288448016236
N           0.89473715054442   -0.72895874018774   -0.03885666814003
H           1.71959435218979   -1.30210559578668   -0.09821910743633
C          -0.40348416179151   -1.18303729813371   -0.02559924612807
C          -0.77729009168191   -2.57642291746911   -0.04928057652620
C           0.16242049407134   -3.59412017191631    0.15901515860543
C          -0.20868456452527   -4.91734742476032    0.12087014134031
C          -1.54293092058870   -5.27456519404930   -0.11014433143099
C          -2.48983943171580   -4.25769117158856   -0.31389653853343
C          -2.11036321327553   -2.93903897856274   -0.28703428160931
N          -1.81705196371908   -6.61705352594050   -0.18475463227508
N          -3.05084581515137   -6.95167312547122   -0.13936284034914
C          -3.32950163812046   -8.26730080515668   -0.29607779969166
C          -2.58957819194244   -9.41934947502710   -0.59564142878094
C          -3.53491817012377  -10.43411591212522   -0.63556575767178
N          -4.75462148468867   -9.96583893512044   -0.38284366031290
N          -4.62642381450399   -8.67122824501778   -0.18359935091717
C          -5.75701604794551   -7.84644572644163    0.12354802220316
H          -2.23341294925876    0.06677369438050    0.06838573810414
H           1.72312135522541    1.24027435042123   -0.00966631592961
H           1.19494173424780   -3.34834986037197    0.36353293458027
H           0.51384522522214   -5.70208556304713    0.28386867588622
H          -3.51360506012454   -4.53967946887989   -0.50845997800063
H          -2.84183708027461   -2.16501580445250   -0.46037375991950
H          -1.53374244203649   -9.47702995643417   -0.75745502184832
H          -3.39467899351914  -11.47812185239311   -0.83436000253248
H          -6.64357797486442   -8.47608105519222    0.09894330138071
H          -5.84719973556717   -7.04499580842254   -0.61051402909296
H          -5.64442683458627   -7.40226367580091    1.11370409179984
