35
         -61.571730846657          0.000428653542
C          -1.19646746253042   -0.05172369874257    0.02797304149167
C          -0.36012639720355    1.03289198664565    0.03227699490698
C           0.93330483612486    0.48170395752081   -0.02702640674425
N           0.88468146843839   -0.82860422124299   -0.06485194575621
N          -0.41159420105149   -1.16052896668768   -0.03115061871050
C          -0.79121679832897   -2.49911697654713   -0.05439507395885
C           0.20720049224610   -3.47441605956300   -0.13675356956322
C          -0.12582706854366   -4.80650357583975   -0.17172213754566
C          -1.46846246824022   -5.20381788479359   -0.09973888835727
C          -2.46551647052404   -4.21943330129280   -0.02173300160775
C          -2.13227492739356   -2.88542516506353   -0.00519478255318
N          -1.72380579645393   -6.54861152626432   -0.18089380287332
N          -2.87188137831484   -6.93873884075304    0.22161408706915
C          -3.16847473609120   -8.24519597611746    0.03867174718560
C          -2.59829529728763   -9.29591769788669   -0.68745204500208
C          -3.46671208625556  -10.36479641259600   -0.50609863107751
N          -4.49165628265377  -10.03066931683667    0.26795254998497
N          -4.31546322625904   -8.75353410290465    0.59171251309156
C          -5.22175014530066   -8.11840764729457    1.41255968625599
C          -5.28705045120924   -6.86026589984504    1.96284584132335
N          -6.41700396164548   -6.75425268969915    2.70262273730507
C          -7.02520478592699   -7.90443166764337    2.61639754648743
N          -6.34070118244896   -8.77836038090877    1.84068524999787
H          -6.55471023788144   -9.73236648636846    1.59692522609079
H          -2.26483068193562   -0.09808515214349    0.06073165447058
H          -0.62898082058516    2.06818443518000    0.07217102635253
H           1.87686259707502    0.98983765477594   -0.04257047807486
H           1.23447022549999   -3.14987380426284   -0.17645029404648
H           0.63538757820045   -5.56818467949224   -0.23246288726578
H          -3.49892579661776   -4.53104726312877    0.00473353424891
H          -2.91706716350931   -2.14738903977107    0.04783318415217
H          -1.69560391066975   -9.25540606974863   -1.25952881567256
H          -3.39860762095163  -11.36080701565774   -0.89697200772961
H          -4.59178021539266   -6.05338209618238    1.87056903207726
H          -7.95250562637732   -8.14345441884372    3.09583973404782
