24
         -38.135130214959          0.000567010090
H           1.13390722096802    0.05431929958628    0.33099995383582
C           2.20600238804125    0.05240999750605    0.20044805567675
C           2.98606594654718    0.99197277979503    0.85932292426722
C           4.35426292484799    1.00287950396922    0.68611878213871
C           4.96357913707069    0.04861351252899   -0.13663179379389
C           4.16873164320923   -0.89600055868968   -0.80000811984152
C           2.80058429183572   -0.88496474883836   -0.63235109880278
N           6.32623560551461    0.15155054963999   -0.30030287953102
N           6.93298741856789   -0.88847788146355   -0.72094580481146
C           8.26064559832470   -0.76235177134879   -0.96403805556846
C           9.17656948122393    0.29773489218493   -0.98245294159473
C          10.37692502469556   -0.29201305172417   -1.35248213146931
N          10.23072524951978   -1.60052774233037   -1.54435339349632
N           8.96410740037060   -1.87521257305054   -1.31548392175250
C           8.45953802274079   -3.21196966310452   -1.42351556648595
H           2.51918130407287    1.72144028223222    1.50489312687049
H           4.97850627429648    1.72436337858252    1.19029227986415
H           4.65073229266061   -1.60999059884883   -1.45121480841980
H           2.18878834383867   -1.60898181179640   -1.15122429645683
H           8.97010181252217    1.32416926780575   -0.76298359993853
H          11.33785508321809    0.16338099258532   -1.48786421306649
H           9.28569432845197   -3.85479383456618   -1.71917288874800
H           7.66673668171198   -3.25639759760391   -2.17126052361369
H           8.05506652574914   -3.54237262305098   -0.46577908526186
