23
         -38.371464593692          0.000867702361
H           1.01967642860114   -0.03519361901024    0.14991489964522
C           2.09459235489725   -0.03196886522824    0.04523624528933
C           2.84964874894819    0.94959635774385    0.67099168655854
C           4.22166049554124    0.96627043203276    0.52981751385099
C           4.86058823707437   -0.01936181373979   -0.23070073780546
C           4.09026839561722   -1.00596437180443   -0.86038641455169
C           2.71868366756961   -1.00481142297159   -0.72242315270511
N           6.22562296150608    0.09752325967241   -0.36800689417721
N           6.85374886163582   -0.94183336009042   -0.76168282347546
C           8.17477734837334   -0.81273270033175   -1.01033801031623
C           9.10187315620885    0.23646480646233   -1.14093360680622
C          10.26959412393710   -0.38033841718176   -1.54411671341988
N          10.10905850283702   -1.70619384660379   -1.65463525437771
N           8.86569820002095   -1.94318025756617   -1.33604331148469
N           8.36852204643867   -3.22027300690562   -1.24928884803347
H           2.35979639057418    1.70716386402115    1.26512694026760
H           4.82671616014384    1.72049812349389    1.00866833604004
H           4.59059814032374   -1.74781607666082   -1.46521306551751
H           2.12770593847462   -1.76377433094767   -1.21496381682357
H           8.91262512875757    1.27552202217847   -0.97427433016856
H          11.22251914292004    0.05518055005969   -1.76685440244279
H           8.81545581185142   -3.82229502223790   -1.93313594893503
H           7.35672975774772   -3.18931230438438   -1.34037829061105
