32
         -55.852502168766          0.000330530340
C           1.34176647326474   -0.10319519622944    1.02613688537558
O           2.57365153305378    0.10107596788453    0.37538556213407
C           3.19673176873764    1.29660003820960    0.50988828125574
C           2.71322021276422    2.37006035185321    1.25801187780809
C           3.42824451115710    3.54730240292259    1.31358977720414
C           4.64619577247308    3.68067165609110    0.64013466114275
C           5.13138385956090    2.59289276017072   -0.10706028635563
C           4.41485025232840    1.42656157879762   -0.17219381206573
N           5.26969972776441    4.89962383789860    0.73858974731038
N           6.45050861137850    4.97035617647426    0.25302098692148
C           7.03829276363986    6.18721870775055    0.25896892997052
C           6.57972284210353    7.49601542603191    0.42449399407239
C           7.69782242017891    8.29431297591256    0.20415674612944
N           8.76994751438686    7.56597232784477   -0.06632086790758
N           8.37465858921973    6.29576022825417   -0.04496372364719
C           9.28903711798904    5.28857923761243   -0.27026315966779
C          10.62493243096723    5.38606289564520   -0.55595505910278
C          11.07594504512315    4.05284497627154   -0.69121108720421
C           9.99030772529546    3.26052640435085   -0.47842002272420
O           8.89821001287284    4.00627277971801   -0.22090995537979
H           1.03489593532234   -1.11452189135728    0.76451203197131
H           0.58276983334287    0.60559600928289    0.68082173812393
H           1.44503814381718   -0.02636391947267    2.11305278172303
H           1.78112194516422    2.29460938825805    1.79571776172459
H           3.06290743129872    4.38412315317582    1.88843940224503
H           6.07086251307022    2.70451331678053   -0.62637606002249
H           4.76574590361383    0.58319787527163   -0.74669692553437
H           5.57751869135298    7.79176787932492    0.65304007499370
H           7.77464635799297    9.36328665613387    0.23340446929413
H          11.18534901759859    6.29119978900898   -0.65154742305885
H          12.07278963810626    3.73364490107937   -0.91487879874050
H           9.86335540506041    2.19672130904888   -0.47930852798967
