23
         -38.401726523582          0.000607846813
N           1.06855802252802    0.05536180349907    0.21646424478744
C           2.42813974475659    0.05554802502684    0.07481127717304
C           3.12217602262836    1.25337589581391   -0.14015508099624
C           4.49127904809391    1.25873543863725   -0.23577494193594
C           5.22219244861529    0.06737420595712   -0.11407708462521
C           4.52397401514431   -1.13281070047828    0.10844474184022
C           3.15615557687466   -1.13665560759533    0.19756249622547
N           6.57967557235382    0.17283714899626   -0.24785627906464
N           7.26275931148148   -0.89879023241263   -0.07328498542278
C           8.60384984519898   -0.78247046626818   -0.25143270222947
C           9.47550617650870    0.22559813850458   -0.67121500903645
C          10.73424208867114   -0.36888964493549   -0.64835331806839
N          10.66743933442656   -1.63202581362305   -0.25027432406708
N           9.38684192379433   -1.87006224362568   -0.01890380442807
H           9.07771053368079   -2.77238637521849    0.30535667397544
H           0.55939563557544    0.86988397007372   -0.08054548357134
H           0.58334153469680   -0.82323566888124    0.15980309375385
H           2.56361818744999    2.17403553623057   -0.23238377522296
H           5.03212075642123    2.17666853175301   -0.40518933401098
H           5.09034592619348   -2.04731240278040    0.19668382599483
H           2.62133827924743   -2.06184997415434    0.36227785689511
H           9.21175519679636    1.22416722734038   -0.94884498168002
H          11.68251481886227    0.06228320814030   -0.90225310628581
