28
         -48.270133494694          0.000165993739
C          -1.13380226025692   -0.00876637403939    0.03277732235865
N          -0.33576437016877    1.08116917439365    0.03877051290571
C           0.88701546826399    0.62922016465153   -0.02157077337561
N           0.92287184380773   -0.72127586581707   -0.05612352655429
H           1.74219005586491   -1.30123728061585   -0.12648380325735
C          -0.37871147871722   -1.16501178912281   -0.02763770837015
C          -0.76365282396246   -2.55514510353931   -0.04504506320227
C           0.16420738337718   -3.57751719135458    0.19240765674433
C          -0.21686722738313   -4.89786739024779    0.16019906385282
C          -1.54959478984507   -5.24653939517949   -0.09399702715454
C          -2.48480329969639   -4.22473645181113   -0.32721507541054
C          -2.09497318381023   -2.90906996612328   -0.30596272198973
N          -1.83046754615684   -6.58729628717301   -0.15665864713215
N          -3.06539223692592   -6.91921665748062   -0.13724827143209
C          -3.33446784493723   -8.24068790268783   -0.27913631950388
C          -2.58679853325920   -9.39294713312892   -0.54345382218352
C          -3.52790611755819  -10.41709373741352   -0.58386770130076
N          -4.75343259197285   -9.95727002849058   -0.36426844452489
N          -4.62747590428633   -8.65556116692099   -0.18702957026301
H          -5.43039499264767   -8.07717279126180    0.00483597181645
H          -2.19794721201497    0.09786612071212    0.08956199270314
H           1.76613679568446    1.24188966451226   -0.04063519870974
H           1.19379819386409   -3.33646132192914    0.41633413001751
H           0.49524280449653   -5.68699659416372    0.34609513025860
H          -3.50632385897855   -4.50121067183616   -0.54033659516646
H          -2.81563594348407   -2.13044841002245   -0.50245050199859
H          -1.52809704753943   -9.45040741874204   -0.68413237924364
H          -3.37241328175743  -11.46274819516801   -0.76124862988400
