32
         -55.511067696284          0.000429375749
C           2.39484369068826   -0.62672249616348   -0.91359881125782
O           2.81196202243179    0.31182012963554    0.05034513580992
C           3.49001772828540   -0.12095770771030    1.13931045572426
C           3.87358125933574    0.87282710636474    2.04981235311093
C           4.57175479994652    0.54722285149279    3.18447205041211
C           4.89557621319464   -0.79028114919700    3.46035263066345
C           4.51394110937837   -1.77958857697926    2.54339885303726
C           3.82610459906165   -1.45156646074423    1.39665493227806
N           5.61355922778478   -1.02209922539120    4.60509957996775
N           5.71422357609243   -2.24049379073012    4.98322106239490
C           6.50281901654632   -2.46965710138286    6.05939247954062
C           7.43789855713027   -1.71376109559103    6.77236448368959
C           7.96082550110141   -2.59144114781058    7.71444963995627
N           7.40826047976778   -3.79328806445746    7.61688286409485
N           6.53328418946162   -3.72138927478443    6.61612478106523
C           5.77969913551638   -4.82500137319836    6.28072198115264
C           4.76363554583759   -5.04441813647604    5.38198939478196
N           4.37285001925353   -6.34005946660425    5.45576017051830
C           5.11696867877529   -6.89898848613602    6.36876019578096
N           5.99570051339998   -6.02075537842510    6.90841860516755
H           6.68338108871010   -6.15545575777133    7.63232469611965
H           1.87163708580919   -0.05147895960306   -1.67565685420926
H           1.71132548103136   -1.36635313684842   -0.48539897262688
H           3.24812306264655   -1.13882992199225   -1.36920425368778
H           3.60733024175441    1.89447424618525    1.82832353070950
H           4.87023360077032    1.30602623721219    3.89068215706041
H           4.78658534772505   -2.80487210852608    2.74420125024874
H           3.55475879917539   -2.23404095816286    0.70503892329190
H           7.68722118383609   -0.68795563672989    6.60112030623917
H           8.70988277081822   -2.40935336126957    8.45981634352568
H           4.30333936397596   -4.35022868933638    4.71202784595070
H           5.05246611075972   -7.92554310887130    6.66698218948705
