21
         -34.960336152915          0.000955427189
H           1.02280825096647    0.08358563215069    0.15163861586581
C           2.09961619905607    0.09854056202531    0.07102350683109
C           2.77160090655451    1.30976865962707   -0.01097266801904
C           4.14563192680843    1.33408752661179   -0.12778557574645
C           4.86852896453170    0.13570293877414   -0.13885110507776
C           4.18299761278104   -1.08370495862388   -0.05707388568749
C           2.80803936403385   -1.09446711269575    0.04169114418607
N           6.23146358215781    0.24098877566211   -0.30209810446309
N           6.93055409939539   -0.76981576734550    0.03473127339112
C           8.26515281170697   -0.69154263507898   -0.20201075610536
C           9.11478817859475    0.19543295939356   -0.86987173204902
C          10.37906192156873   -0.37321011958205   -0.74459411757556
N          10.33285445760612   -1.50925671832922   -0.06030055500621
N           9.06491424108373   -1.69411554364154    0.25369842166439
H           8.77331238676483   -2.49521348262531    0.79161944335904
H           2.21665690847643    2.23614045083044    0.01007048990936
H           4.68731723577859    2.26508149179354   -0.19104312337583
H           4.75157911166363   -2.00102096807142   -0.09179973185452
H           2.27974044447333   -2.03536668892271    0.09669147140189
H           8.83424275872764    1.10036861200901   -1.36617401868571
H          11.31638863726997   -0.01034361396129   -1.11694899296274
