28
         -52.783305730876          0.000572446301
C          -1.15658577561438    0.01118081310771   -0.22920997904931
C          -0.25291727278037    1.08211879789918   -0.08145076539012
C           0.94489581220769    0.51745905260812    0.24279812828879
O           0.84242275587882   -0.81468575025102    0.30421291680582
C          -0.44157124996029   -1.14040245915705    0.01670975667793
C          -0.82909356811231   -2.53068180396883    0.00598534779925
C           0.12179052534279   -3.52805623273117    0.25946260137785
C          -0.23099327124203   -4.85534824806542    0.23137328246984
C          -1.55422497140995   -5.23100031476354   -0.04158444221726
C          -2.51226235769561   -4.23163482016416   -0.28593723028462
C          -2.15235097904660   -2.90783228277458   -0.26439778691656
N          -1.80530598424489   -6.57748167483692   -0.08746865382246
N          -3.02970949913197   -6.92656354866465   -0.21103268359641
C          -3.26805147615195   -8.25452513080673   -0.32012892023329
C          -2.50827110046342   -9.42624759806907   -0.43723774423152
C          -3.43933420140295  -10.45089806686740   -0.55412971694938
N          -4.68341787965428   -9.98287201415649   -0.51341424626687
N          -4.54847759412287   -8.69763043621769   -0.38249316251691
F          -5.65401135240331   -7.91666682423841   -0.29655598372751
H          -2.19301341706312    0.08550311434175   -0.48555851026455
H          -0.46256943001217    2.12525866549232   -0.19962317917882
H           1.90625662552976    0.94632418806942    0.44658410787931
H           1.13968826934224   -3.23853970373163    0.47147791993819
H           0.49506848473408   -5.63026871766562    0.42241152660425
H          -3.52708523380953   -4.53214701249586   -0.49829078532391
H          -2.89291489765526   -2.14749962685921   -0.45771347337592
H          -1.44046588571881   -9.48647886581396   -0.43844323157092
H          -3.27527507533977  -11.50368349921980   -0.66591509292474
