24
         -42.924509147990          0.000653369513
N           1.20254099806990    0.03784255049201    0.04062318885248
C           2.55778490580545    0.05666694170602   -0.06097115618327
C           3.24151979460558    1.26582407938729   -0.26073446490888
C           4.61041073201280    1.28843576217867   -0.32818716191087
C           5.35240706450965    0.10237837975279   -0.19811670789899
C           4.66506787157387   -1.11059009684084    0.00746391862612
C           3.29828344195778   -1.12989575337512    0.07346889894962
N           6.70638299199671    0.22157839912856   -0.29305052950385
N           7.39002218596545   -0.85408788528863   -0.13988556894551
C           8.72671456696538   -0.75008472169246   -0.31499995880415
C           9.59427006563708    0.17522524260561   -0.87910391069892
C          10.85820343219587   -0.42528323216706   -0.80948733354546
N          10.80995563182475   -1.61571530297149   -0.25441004817599
N           9.51747469812526   -1.82963110104028    0.04282426899804
C           9.08004546991471   -2.93445343408500    0.63154134559736
N           8.68536403451602   -3.88388567127162    1.13360689538378
H           0.67699806525195    0.86012455138547   -0.19661090604295
H           0.71999914329440   -0.84295254085911    0.04777449686140
H           2.67261696321152    2.17905930126827   -0.36100363078333
H           5.14419897266281    2.21299304659627   -0.48301113926758
H           5.24379008376759   -2.01607311132705    0.10976298183670
H           2.77124459430797   -2.06041817800123    0.23011699466664
H           9.33032457910177    1.12977279820392   -1.28311106331199
H          11.79986971272525   -0.03265002378548   -1.13982940979027
