35
         -60.626169726843          0.000489610394
C          -1.23610177402160   -0.14231872523039    0.03048186354954
C          -0.50809313972887    1.05983545061417    0.07260720790190
C           0.83509502944593    0.85704142438258    0.12618910859332
S           1.23810718350308   -0.80843795915032    0.13042436716410
C          -0.44449334618728   -1.26362345904724    0.05388690501341
C          -0.83339451991811   -2.65207894955260    0.01839288643881
C           0.11879725443656   -3.66555923375616    0.19425040100297
C          -0.23823535915481   -4.99002198450367    0.14637582789707
C          -1.57543484608895   -5.35778550919963   -0.06759332217082
C          -2.53437958336712   -4.34680787523609   -0.24770086276189
C          -2.16719997979979   -3.02531268216479   -0.20621142852990
N          -1.82811832827389   -6.69913575775173   -0.15180034227708
N          -3.04624443601235   -7.08012527037581   -0.12769199843464
C          -3.29086149201258   -8.39336567233727   -0.30684488157004
C          -2.54361278810064   -9.52436948978290   -0.65062402495787
C          -3.47628254690145  -10.55275720796321   -0.70720937485849
N          -4.69975282060874  -10.12062611207932   -0.42363264243899
N          -4.58815887309658   -8.82366779665657   -0.18658596506237
C          -5.66317469539291   -8.03480927478476    0.14680585483263
C          -6.96778259860031   -8.42310134535507    0.25914110765816
C          -7.80832047476086   -7.34807489573522    0.61380706635876
C          -7.13087290839451   -6.18211433880572    0.76545731305176
S          -5.43706318441576   -6.35242328531177    0.47646396888896
H          -2.30969894016313   -0.17141045680024   -0.00605858313223
H          -0.96328103641540    2.03412325711600    0.06351383742282
H           1.61896919742295    1.58719813876338    0.16331332170472
H           1.14958587618578   -3.39164829087968    0.36797312356655
H           0.49474806287207   -5.76951736041082    0.28459423992304
H          -3.55781760384939   -4.63160951141534   -0.43532850643403
H          -2.91650301479055   -2.26444413886477   -0.35996289857371
H          -1.49010524317009   -9.56125432969892   -0.83089464198047
H          -3.32072512532906  -11.58777812862633   -0.93907052755597
H          -7.29002898358676   -9.43349754092382    0.09119315210678
H          -8.87021236931611   -7.44786219547677    0.74941379498776
H          -7.52349259240766   -5.21964949299968    1.02643465267526
