35
         -61.092184866725          0.000607083514
C          -1.23683984935038   -0.09668537578425   -0.24165967213416
C          -0.41512363760683    0.98893619105113   -0.09484159755252
C           0.83210370541042    0.44213322547070    0.26017107115514
N           0.77116685093533   -0.86663091186701    0.32229915543846
N          -0.48839930449838   -1.20206459406242    0.01800562027962
C          -0.87127763701965   -2.53930282762023   -0.00439130299595
C           0.09557624412907   -3.51642739862383    0.25036349498683
C          -0.24016255011889   -4.84787265896618    0.21828683018360
C          -1.55968970704007   -5.24204771659318   -0.04865136976496
C          -2.52588363145933   -4.25560435454917   -0.29979734878311
C          -2.18496786288156   -2.92380903504084   -0.28192074608258
N          -1.79378544296384   -6.58983890943372   -0.11427095320069
N          -3.00509575348332   -6.98435053213657   -0.07604989258088
C          -3.24292459003696   -8.30062176225323   -0.24132681503042
C          -2.50076455051403   -9.42385035893002   -0.61906402368494
C          -3.42515316716407  -10.46142626504199   -0.63368489687098
N          -4.63804818162552  -10.04126007409345   -0.29274612968118
N          -4.52950959335515   -8.74327119682575   -0.06261655921678
C          -5.59491958970380   -7.96568171755153    0.32488658810771
C          -6.88421768338632   -8.37299352361906    0.51855317690505
C          -7.72003502967351   -7.30659108190508    0.90785180485900
C          -7.05446927083252   -6.12796400666827    1.00381146909684
S          -5.37727578972576   -6.27578262823395    0.62015767375775
H          -2.27120439965379   -0.14695476710139   -0.50999598694539
H          -0.66472548435608    2.02195765700064   -0.22191194687891
H           1.75130961555921    0.95260726491649    0.46760016550750
H           1.10240231662095   -3.19518137801639    0.46323862724258
H           0.49679435534339   -5.61088406688748    0.41313445662520
H          -3.53563693945076   -4.56296941483108   -0.52201415950069
H          -2.94397427727577   -2.18467375451361   -0.48417745815187
H          -1.45682668933945   -9.44973100495894   -0.84980017035024
H          -3.27042566603749  -11.49479961509483   -0.87304124506418
H          -7.19826809870559   -9.39085543017822    0.38341076587957
H          -8.77012798518591   -7.42099792230802    1.10807198658821
H          -7.44673072555355   -5.16820005474964    1.27455938785727
