32
         -55.031544735164          0.000778619568
C           1.52153902950840    0.33299236637323    0.21464930537218
O           2.81522297736115    0.23770608360007   -0.33544971362401
C           3.16922375872583   -0.89259510055741   -0.99031839478953
C           4.47424067579536   -0.91533291509852   -1.50124802321766
C           4.93444330570609   -2.00984641023389   -2.18696637949911
C           4.11115054744473   -3.13261764100911   -2.37237901692510
C           2.80462941994947   -3.10202507212895   -1.86470509203019
C           2.33855805233715   -1.99777619081006   -1.18728581323828
N           4.65769909222047   -4.16712879671568   -3.08226739712227
N           4.02398730400273   -5.27485148619589   -3.11237952409232
C           4.54677837467253   -6.26343592129952   -3.86857347077115
C           5.58014869082970   -6.38203383491282   -4.80141764884973
C           5.51568122584027   -7.70469848907462   -5.22562589142832
N           4.53834546557350   -8.36642039033668   -4.61864530954218
N           3.95347660350913   -7.49812466762419   -3.80702422271714
C           2.89429269102030   -7.83635721965480   -2.99893682728985
C           2.28174341348093   -9.05321049874984   -2.90815619396256
C           1.22183069479922   -9.04115763083619   -1.97793437037743
C           1.05768976144140   -7.83082520495038   -1.38749694428296
S           2.19360651932181   -6.65600609809955   -1.94828337175468
H           1.47674094142027    1.31098408099717    0.69114128072603
H           1.34684359110474   -0.44379761999812    0.96580146340113
H           0.75068494982477    0.27224784001375   -0.56028937385598
H           5.09783126855226   -0.04970430636224   -1.34117087956244
H           5.93797182912366   -2.03639357952931   -2.58199842790291
H           2.16464867980408   -3.95598842809868   -2.02353340861962
H           1.32588617437054   -2.00063760493370   -0.81490978483255
H           6.25263699197244   -5.60974922660671   -5.10975476103826
H           6.13324383880378   -8.21006636537444   -5.94167378606766
H           2.58942670672910   -9.90323017350831   -3.48766039298280
H           0.61436688683869   -9.90186091177955   -1.76268211550205
H           0.33033053791694   -7.54839858650131   -0.65278551362049
