29
         -52.311389439522          0.000342072950
C          -1.14704180443597   -0.07005291479980   -0.01342219341661
C          -0.40415640927162    1.12164646808006    0.03085786117154
C           0.93609471606746    0.90094858213230    0.10780488737570
S           1.31739038533542   -0.76784080950417    0.13103071038905
C          -0.36978668270235   -1.20236637520283    0.03136338787283
C          -0.77660891590055   -2.58448885441426    0.00327915181055
C           0.17242153460324   -3.61028822965083    0.12028681828652
C          -0.20265112976872   -4.93017604055071    0.08650559337228
C          -1.55335449621453   -5.27781675592408   -0.06524861216274
C          -2.51189963465610   -4.25496286616240   -0.17900944522585
C          -2.12777929928185   -2.93929209115414   -0.14561241976544
N          -1.83523444241267   -6.61633829381117   -0.10764698671920
N          -3.07299021919650   -6.93064039932972   -0.20574540712144
C          -3.35821485762771   -8.24733326130320   -0.31915281550059
C          -2.64425976609356   -9.41530316309335   -0.55453173054843
C          -3.61569105485253  -10.42155372582789   -0.63154762770713
N          -4.83025706186290   -9.94761744360479   -0.45889690180467
N          -4.68932326677521   -8.62789152976864   -0.27626826485126
C          -5.71174590888931   -7.80765772801266   -0.06514695257772
N          -6.58003629329549   -7.08476400303255    0.11327293228253
H          -2.21992324303007   -0.08422701920366   -0.07153220929943
H          -0.84573701124830    2.10173365559137    0.00634539726244
H           1.72818534210521    1.62176516454713    0.15347714436880
H           1.21453617014348   -3.34968192260304    0.23776402730751
H           0.52656392660284   -5.72024130147994    0.17575317627564
H          -3.54929584114201   -4.53145264290675   -0.29409519958557
H          -2.87606624170016   -2.16797959833241   -0.23942991100150
H          -1.58346908036865   -9.50264867072589   -0.65993171343363
H          -3.47532941413078  -11.47069822995214   -0.80257269705459
