25
         -46.361840230868          0.000960582602
C           1.79240621619524    0.81363641665372   -0.88217788124249
O           2.49376028973574    0.04022168960138    0.06372856647153
C           3.12654990486030    0.66237941750463    1.08283234416672
C           3.15083218019751    2.04375585432757    1.28470544128522
C           3.83178670599372    2.56873710562455    2.36088827329315
C           4.49963130438137    1.73581821103690    3.26590774263264
C           4.47125535369086    0.34421996621150    3.05747055180113
C           3.79859762902109   -0.17735593692049    1.98436341389794
N           5.15130467183667    2.36453737068583    4.29319066980757
N           5.71569442569067    1.61391912819760    5.16194536201608
C           6.38696028827786    2.25179171589266    6.15137058257826
C           6.74250137786281    3.57181051857335    6.45961035285077
C           7.48596534981747    3.48246840042454    7.63014749858459
N           7.59396999015407    2.22238518215575    8.04150627437343
N           6.94775616268925    1.52868211002178    7.15155468059934
F           6.85793334133742    0.18172910757900    7.29293904934764
H           1.37172328558780    0.10176052624809   -1.59051315990453
H           2.45972765282413    1.50007395577439   -1.41223093269727
H           0.98167225356852    1.38032646300126   -0.41399069798315
H           2.64240741383240    2.71105435740402    0.60667612120728
H           3.85832643469544    3.63449329611521    2.52767939533003
H           4.99130660594550   -0.29442698818589    3.75475212314258
H           3.76760994130091   -1.24087202834912    1.80455452724572
H           6.48678012688507    4.44221077288557    5.89276987307921
H           7.94711109361670    4.26529338753688    8.19865982811729
