35
         -61.105663091299          0.000779384062
C          -1.16592039811155   -0.10022111382055   -0.02493561786495
C          -0.43801319817710    1.10225158294035    0.00900429578804
C           0.90425141690024    0.89995542302315    0.08359333466211
S           1.30675090894412   -0.76557047245970    0.11080373236361
C          -0.37509826826078   -1.22147682478453    0.02236858077770
C          -0.76351717589666   -2.61049846633044    0.00258883343799
C           0.20612176334769   -3.62209966912552   -0.03883168066214
C          -0.14992263548794   -4.94691785012950   -0.08250748571310
C          -1.50235148650532   -5.31698810528475   -0.05962636494798
C          -2.47964805418847   -4.30886556406108   -0.01158246698173
C          -2.11524866392429   -2.98607282824992    0.01339082760827
N          -1.78679513633013   -6.65094133702500   -0.17132950715457
N          -2.95335205954067   -7.02463917375955    0.19214049794657
C          -3.28870762812233   -8.31049944370946   -0.05348675024305
C          -2.76091473527958   -9.33569579368716   -0.84531777379449
C          -3.66853213577498  -10.38030408790099   -0.72524613552401
N          -4.67759345044968  -10.05680862559890    0.07358143729622
N          -4.45235077751408   -8.80875658535344    0.47346811240311
C          -5.33055012222972   -8.18936574496622    1.33551590178733
C          -5.33442367255261   -6.97239644810070    1.97512225909782
N          -6.46236855750788   -6.86201600947080    2.71774096067209
C          -7.12791762743461   -7.96996821103211    2.54759681663764
N          -6.48442007074448   -8.81996148153750    1.71233642102314
H          -6.74465200888740   -9.74229583744600    1.40123483848316
H          -2.23816844376665   -0.12851417843655   -0.08804150369483
H          -0.89286801199486    2.07626733176071   -0.02078898939428
H           1.68798676877832    1.63019257374906    0.12315256590994
H           1.25106398940152   -3.34635182317812   -0.04606007652608
H           0.59771718248327   -5.72384599189563   -0.11418762723897
H          -3.52025201727572   -4.59944767600096   -0.01519498472303
H          -2.88186367918183   -2.22776947172808    0.04601895313879
H          -1.86029753514212   -9.29374578335935   -1.42044925905388
H          -3.63917302292977  -11.35200298901974   -1.17740316183243
H          -4.59912758106783   -6.19677995359566    1.94169441521490
H          -8.06933387557577   -8.19483937042469    3.00615660110071
