22
         -39.480706954220          0.000693901910
H           0.99059250547367    0.00803854050535    0.01808896315188
C           2.06833125715139    0.02603002735141   -0.04867295538664
C           2.72588617105916    1.22526662981724   -0.28455816623096
C           4.10186694926106    1.25232203382435   -0.37511498920493
C           4.83587226118771    0.06897710426280   -0.22430583207592
C           4.16447011467516   -1.13970171772058    0.01659964929742
C           2.78947519774073   -1.15196534619188    0.10129473772650
N           6.20070092101907    0.19056939532752   -0.34560475986664
N           6.88501348998725   -0.86709987259631   -0.14098057805965
C           8.22324821430281   -0.76685552554954   -0.32544386111515
C           9.08991736637326    0.16042836440200   -0.88822853259075
C          10.35536426535857   -0.43586069926012   -0.80883810057546
N          10.30377073632754   -1.62395031281828   -0.24771614621239
N           9.01485194076732   -1.84115529742396    0.04284484938974
C           8.57879500755858   -2.95130501346578    0.62771116832064
N           8.18608360134677   -3.90482397181853    1.12222773298857
H           2.15909300433975    2.13736889131707   -0.39869259153107
H           4.63696329518748    2.17135160182530   -0.55752975444125
H           4.74582707684098   -2.04244305897429    0.13008848506456
H           2.26981964262827   -2.08089701266410    0.28467851322424
H           8.82539331546685    1.11303532927682   -1.29663973353998
H          11.29832366594776   -0.04300008942735   -1.13456809833283
