28
         -48.256362416632          0.000672823377
C          -1.12471386310804   -0.02992402866593   -0.27095772446445
C          -0.28557448368037    1.04103717326569   -0.11415673192660
C           0.95010417516810    0.47144870365793    0.24459505890623
N           0.86641611622874   -0.83644643344803    0.30047904913012
N          -0.39679734943273   -1.14900766329476   -0.01276607315843
C          -0.80249128636225   -2.48016578831270   -0.04261906210722
C           0.13874947958890   -3.47276872500116    0.24467463717227
C          -0.22045769928555   -4.79884822747044    0.21431657197168
C          -1.53921422372239   -5.16960550764857   -0.08258393102385
C          -2.47798829213925   -4.16794885451673   -0.37160261678900
C          -2.11402403931239   -2.84186657955910   -0.35777888192015
N          -1.80845929054280   -6.51420767321199   -0.13366825038124
N          -3.03930384986177   -6.85594701673395   -0.11196111205955
C          -3.29991508708294   -8.17996892328633   -0.24770940653126
C          -2.54731810531859   -9.32402156298466   -0.53202554134832
C          -3.47944196989473  -10.35707948550074   -0.55475312333089
N          -4.70373074688462   -9.90942961362635   -0.30579423488848
N          -4.58710175393422   -8.60712121035130   -0.12896108004521
H          -5.39226195664680   -8.03999740008016    0.08598402661355
H          -2.15953928040887   -0.05960536067721   -0.54130523354899
H          -0.51694334140497    2.07880802816086   -0.23741082515997
H           1.87648109071571    0.96590526619635    0.45912612583656
H           1.14500377812428   -3.16694332538165    0.48201747285741
H           0.49652512480947   -5.57403983573162    0.43408617243917
H          -3.48609182605745   -4.46319130415784   -0.62018110430999
H          -2.85152519992720   -2.09008370207858   -0.59161813144191
H          -1.49170004357982   -9.36920769258093   -0.69822181227347
H          -3.31794607604753  -11.40071325698003   -0.73856423821802
