28
         -48.617023854623          0.000409461231
H           1.03273125276584   -0.24928832129161    0.03757689735556
C           2.10600582095262   -0.21032260647811   -0.07717663237546
C           2.80485113698012    0.91807863344356    0.32616033599244
C           4.17477068509884    0.97628580986228    0.17332318519788
C           4.86396475113525   -0.11068707885149   -0.37490554144740
C           4.15143985162306   -1.24759059679924   -0.78051119771300
C           2.78206236844655   -1.28843340724701   -0.63220959252505
N           6.22802793628031    0.03540497974696   -0.51730934917148
N           6.87109026837074   -1.02937287698274   -0.80259604168575
C           8.19951566093302   -0.90852635792228   -1.01691047710092
C           9.08771363970575    0.16073402776254   -1.15733516450172
C          10.31625954896634   -0.43296795193450   -1.42704441036714
N          10.22275298077511   -1.75445812253865   -1.45080710410826
N           8.94969789824043   -2.04509061290573   -1.21003099983259
C           8.54073580933865   -3.36142738398747   -1.15977781965972
C           9.26962524862941   -4.49962018798291   -1.38231461767629
C           8.36101742877338   -5.56672915328220   -1.19738597089036
C           7.16598455726144   -4.99807457026091   -0.87979996816829
O           7.26788227906697   -3.65551306346050   -0.85548977830885
H           2.27441157543448    1.75428212612500    0.75749060272645
H           4.73837726410262    1.84327234718347    0.48139347207874
H           4.69962593261261   -2.07207781072906   -1.21084299488337
H           2.23117566114647   -2.16244723450027   -0.94892155572143
H           8.84693646203384    1.19993893177595   -1.07890433031653
H          11.26437536392574    0.03580955021684   -1.60198261411714
H          10.30578671653072   -4.54497142590171   -1.64087287749770
H           8.57290896358677   -6.61181764243681   -1.28859110621170
H           6.20563293728402   -5.41678000062226   -0.65545434907105
