28
         -52.799150831889          0.000712202896
C          -1.14471854054789    0.00909755202143   -0.25782102541442
C          -0.24041645554039    1.07866799377003   -0.10061470742530
C           0.95007262071048    0.51279025241081    0.24726246484559
O           0.84227850966555   -0.81902470362051    0.31478294143915
C          -0.43753029251916   -1.14271363560596    0.00771638547482
C          -0.83004189834747   -2.53199395915308   -0.00085479298533
C           0.11480463493771   -3.53186554619717    0.26500614705431
C          -0.24276841739698   -4.85789481792420    0.24137473602052
C          -1.56579242127257   -5.22998516797425   -0.03698384549198
C          -2.51678315267833   -4.22800401829709   -0.29655821648831
C          -2.15184661518384   -2.90530965791691   -0.28090820997007
N          -1.82213531365135   -6.57589552364136   -0.07643507283316
N          -3.05077750731741   -6.92044213293642   -0.17407169905641
C          -3.29757398586276   -8.24566417424970   -0.28601206297878
C          -2.55759102222638   -9.41110929046058   -0.45130732980256
N          -3.37225668753048  -10.47934293354205   -0.55383330967445
C          -4.59966124632140  -10.03089686688654   -0.45816752468151
N          -4.59694630822013   -8.69714060357212   -0.30280148203981
F          -5.70409816144092   -7.91314520138557   -0.16714058245677
H          -2.17643822963312    0.08552927300478   -0.53247934319709
H          -0.44541384771208    2.12158700978160   -0.22903418780430
H           1.90921023609851    0.93989668784267    0.46541582977819
H           1.13222382198864   -3.24485843166756    0.48265257060406
H           0.47811495982093   -5.63516040168935    0.44212881172000
H          -3.53121725376187   -4.52536820904980   -0.51538640574966
H          -2.88753433590030   -2.14302191525266   -0.48526869765605
H          -1.49237890284310   -9.50745375053021   -0.50639724053394
H          -5.49025418731418  -10.62406782727828   -0.49679415069610
