30
         -51.683651907419          0.000703216905
C          -1.18123865977444   -0.06284135684501   -0.26086941102015
C          -0.35262207104618    1.01538337893639   -0.09309128804994
C           0.88701240717178    0.45496312881878    0.26343775930114
N           0.81573566219149   -0.85461833194525    0.30750518567499
N          -0.44324482442049   -1.17629221294282   -0.01099578081721
C          -0.83537057303716   -2.51229094579196   -0.05114514160417
C           0.11037860024793   -3.49582585939071    0.25117563521521
C          -0.23205732616578   -4.82537952661407    0.20805053753104
C          -1.54010287905944   -5.21233498043024   -0.11523257698099
C          -2.48283666071605   -4.21910376675152   -0.41821866057318
C          -2.13490757097337   -2.88820507951004   -0.39307280086438
N          -1.78613906716756   -6.55935627535502   -0.19217685801021
N          -3.00806571281322   -6.93140249693296   -0.13200791847742
C          -3.27221848676037   -8.24317560953145   -0.30763779877061
C          -2.58332414221222   -9.40342381675556   -0.66137520059569
N          -3.43190146559382  -10.43643298361727   -0.72930108128124
C          -4.62341904181217   -9.96388817215024   -0.41405316241374
N          -4.58590088096140   -8.64873926150771   -0.15801135378950
N          -5.61124300651259   -7.82197718436513    0.27294539884876
H          -2.21524120011613   -0.10093919061445   -0.53306201418837
H          -0.59421600015746    2.05184833982913   -0.20738258202209
H           1.80894934996133    0.95501851981382    0.48388453591344
H           1.10865659020422   -3.18100126160713    0.50886743868765
H           0.48943720225626   -5.59289770874573    0.43900905829783
H          -3.48274734096064   -4.51848967439867   -0.69499438171406
H          -2.87674377024242   -2.14531231184626   -0.64159790663981
H          -1.53777558128850   -9.51023718258021   -0.86673792707434
H          -5.52151535003709  -10.54718192713568   -0.38037221164348
H          -6.36223099497623   -7.77900311699986   -0.41267760058772
H          -5.20358720522814   -6.89686313303327    0.40772810764833
