29
         -52.332420027599          0.000952503256
C          -1.15178825075928   -0.07585952582379   -0.02520303982611
C          -0.40690538326037    1.11529150424506    0.00800885868588
C           0.93232118331740    0.89313500577643    0.09155922243208
S           1.31046521709067   -0.77633374244030    0.13359807183168
C          -0.37727402438128   -1.20895573788229    0.03358319760388
C          -0.78559655249352   -2.59115572079914    0.01129103066944
C           0.16255208017546   -3.61804036507500    0.12257040151106
C          -0.21333699968462   -4.93771520011474    0.08386388129899
C          -1.56427462443465   -5.28487815446216   -0.06427519738758
C          -2.52186752679582   -4.26080493633851   -0.16861885192153
C          -2.13710518486286   -2.94499655448225   -0.13172099452783
N          -1.84440804675145   -6.62439029439154   -0.11555117735775
N          -3.08462091968514   -6.93888800752857   -0.18943140746648
C          -3.37428120470673   -8.25249262136000   -0.30366715032252
C          -2.67415416309711   -9.42484802759265   -0.53230426105459
N          -3.52474341020846  -10.47374041904791   -0.61886595241619
C          -4.72233358368480  -10.00218389000445   -0.45263897647741
N          -4.71484937793829   -8.64388528480279   -0.26191175777723
C          -5.76060965712576   -7.85450189457632   -0.06525214705267
N          -6.67958050566052   -7.19571159217118    0.10819998607686
H          -2.22446581325186   -0.08851959356619   -0.08730584280109
H          -0.84671409685625    2.09583700861122   -0.02975707313422
H           1.72576992162745    1.61278023780516    0.13077159590246
H           1.20508593711145   -3.35868726014656    0.23792128064215
H           0.51530269236923   -5.72877763170851    0.16768713602844
H          -3.56012396456770   -4.53428365770388   -0.28194047520362
H          -2.88565226699904   -2.17314570889224   -0.21872447228307
H          -1.61637444235954   -9.54543715459407   -0.64672857134442
H          -5.62538703212681  -10.57948078093311   -0.45937731432804
