24
         -42.945027174173          0.000581715828
N           1.05371763172166   -0.03274940399666    0.03996625918932
C           2.41178544773488   -0.01322817940029   -0.05249173669653
C           3.09679517040525    1.19648029499800   -0.24056115615957
C           4.46656702369961    1.21990809632468   -0.29624227718553
C           5.20818956184408    0.03450814768063   -0.16270315987475
C           4.51941818913928   -1.17830457907293    0.03320653542235
C           3.15139548516770   -1.19893897121174    0.08500668065277
N           6.56386665402940    0.15576587498381   -0.25146362973952
N           7.24766406408838   -0.91730890075441   -0.08049237909866
C           8.58377041726598   -0.81756057353888   -0.25320702419715
C           9.45538235922664    0.09407259855936   -0.82131716840780
N          10.72142338248788   -0.38856561633537   -0.80818587698163
C          10.67158615307443   -1.55965969040200   -0.25445234606639
N           9.38939367127915   -1.90096629745214    0.10513771747429
C           8.99615849448562   -3.02002754977948    0.69197251132940
N           8.68308191413002   -3.99647352573892    1.19979511356401
H           0.53357007795982    0.78650536140036   -0.22004124363980
H           0.57404276840193   -0.91508977632522    0.01126529279112
H           2.52867991904844    2.11005421206160   -0.34246124930801
H           5.00181325856507    2.14488094368364   -0.44346870347492
H           5.09597922242215   -2.08496690744514    0.13695031251278
H           2.62376411872937   -2.13086627475896    0.23200197950121
H           9.21954751725938    1.04923811796010   -1.24352300438104
H          11.50838749783291   -2.20722740143930   -0.08412144722548
