35
         -60.641127461086          0.000619242952
C          -1.14195460534042   -0.10043897376848   -0.09289414056528
C          -0.40126307800193    1.09204155315002   -0.00943893661232
C           0.92822012799980    0.87120747030892    0.16543332994787
S           1.30185749435589   -0.79980709900926    0.23767684409558
C          -0.37438792138326   -1.23247516232352    0.02262448046130
C          -0.78084046759621   -2.61650097574690   -0.01253299365704
C           0.15009866113634   -3.63971969364425    0.21183349629439
C          -0.22247289956961   -4.96055426250829    0.17434566119936
C          -1.55594069660194   -5.31449023242066   -0.07534536939608
C          -2.49216952986873   -4.29409227543179   -0.31065123420437
C          -2.10981802248887   -2.97609437739509   -0.28085325921647
N          -1.83460277879604   -6.65444419115973   -0.13695445889506
N          -3.07081338108649   -6.98606532580349   -0.08381869714091
C          -3.35292553007931   -8.29561618616711   -0.24806876966925
C          -2.61016055580677   -9.41197104684884   -0.61938447868003
N          -3.40357569956921  -10.49436504129857   -0.70215021906573
C          -4.60867038068447  -10.08569039593434   -0.39490249783745
N          -4.65665345164474   -8.76054521723502   -0.11078612456021
C          -5.77657359198247   -8.03457616297719    0.24707205747651
C          -5.83828958928140   -6.77281154229627    0.76133433666891
C          -7.16563253351833   -6.35635128096098    0.99966372097864
C          -8.08505032463069   -7.29781208435589    0.67083448377755
S          -7.36045307028370   -8.73055975166707    0.05265742052816
H          -2.20793556257417   -0.11355426062272   -0.22621483910677
H          -0.83840997996611    2.07228344593367   -0.07739533782892
H           1.71752041493293    1.59032867629973    0.25882165282992
H           1.17874265852197   -3.37721295188982    0.41382970476109
H           0.49419809998482   -5.74746991965356    0.35010874953505
H          -3.51213559222696   -4.56956932292598   -0.53524846022908
H          -2.84328668020345   -2.20832405599651   -0.47356348857636
H          -1.56115805660451   -9.45675301182901   -0.83060021701144
H          -5.47593582946655  -10.71581211223098   -0.36457813282035
H          -4.96441011126258   -6.17993395974076    0.95557452474421
H          -7.41988646270146   -5.39291729794005    1.40315138680914
H          -9.15225107371142   -7.24968297391037    0.75279980496549
