23
         -42.583762862631          0.000383482119
N           1.08597168833388   -0.01248694577977    0.19150764742047
C           2.44502873460135    0.00365475525417    0.07248908103085
C           3.13429720360702    1.21646878141823   -0.06618331367949
C           4.50391748653910    1.23534589482834   -0.14110605017402
C           5.24063330358493    0.04262110546992   -0.06993755475077
C           4.54746413248910   -1.17366016012888    0.07319936425588
C           3.17910870803769   -1.19041376876825    0.13821898554919
N           6.59774164671903    0.16235785469526   -0.16898356401059
N           7.28278088841729   -0.90904340028168   -0.00405295248394
C           8.62134340678334   -0.79865089468368   -0.17207867561694
C           9.50655483382508    0.13176128800936   -0.70065040129972
N          10.76808151675576   -0.34735105382279   -0.68317356265240
C          10.71036104354266   -1.54479956123272   -0.15887613604698
N           9.43889550074510   -1.85646360055386    0.14832891731911
F           9.02893610370598   -3.02420223239247    0.72606724504351
H           0.57163810327573    0.81871421271480   -0.04244116505768
H           0.60381069435261   -0.88904009619664    0.09566218333719
H           2.57062559765640    2.13724615291119   -0.11549345074742
H           5.04209108991367    2.16384679346877   -0.25069471550460
H           5.11906803029998   -2.08791581032344    0.12123832129890
H           2.64780348854957   -2.12637192972963    0.24099203030632
H           9.27750664546656    1.09943522265831   -1.09733740363857
H          11.53954015279810   -2.20088260753440    0.00824517010079
