27
         -45.622612827123          0.000364833485
C           1.78326967914190   -0.75381162351757   -0.87463378228402
O           2.71488112865103   -0.07528769493987   -0.06606241653544
C           3.24756499081223   -0.71760830262249    1.00288431650115
C           4.17608973332160    0.01508007456191    1.75228669190178
C           4.78028113488934   -0.54101599496335    2.85141787745247
C           4.47070596529856   -1.85037348028699    3.24889620688837
C           3.54048628122423   -2.57708764919063    2.49471912657032
C           2.93854160509649   -2.02296353596888    1.38644150004475
N           5.13734640088169   -2.31983667823630    4.35412075654212
N           4.78947206259270   -3.47503429102390    4.78707390633384
C           5.45866349493445   -3.96249623800761    5.85484223309568
C           6.51912472718365   -3.58601169521867    6.67670907166249
N           6.75522317198812   -4.54110575548354    7.58719048158877
C           5.86887422448364   -5.49273825346596    7.36873651841032
N           5.06707284641305   -5.19816400233200    6.33425861519868
N           3.98302297513438   -5.91640274863235    5.85027018231543
H           1.50417925229140   -0.04915626288459   -1.65626389073829
H           0.89023066139640   -1.03779550835937   -0.30862959914143
H           2.22379165372393   -1.64539689198307   -1.33248897803834
H           4.40096263329442    1.02205908757577    1.43796457807263
H           5.49739175560396    0.01563854291102    3.43367202770402
H           3.30460657626291   -3.58833528431376    2.79063794973788
H           2.22952865456284   -2.61141702605571    0.82436750795705
H           7.09711540879314   -2.68560316400598    6.63451284541498
H           5.79702301088817   -6.40259627703911    7.92976198499169
H           4.27859166422686   -6.81674071647297    5.47747714701500
H           3.57371830690715   -5.35131863004271    5.10580714133871
