35
         -61.934403547143          0.000736484015
C          -1.10891412327126   -0.03140095264728   -0.30593402126224
C          -0.27015894881799    1.03951712148427   -0.14388531955095
C           0.96457449158728    0.46917057194707    0.21536569830672
N           0.88042792375708   -0.83904444754688    0.26830379374019
N          -0.38152859120292   -1.15065739095248   -0.04894126384552
C          -0.78898239909770   -2.48182219836733   -0.07150570722423
C           0.13517376667318   -3.46936716416093    0.28121936864115
C          -0.22564073683541   -4.79467285817814    0.26700974042123
C          -1.53101613733507   -5.17173054982929   -0.07815133225415
C          -2.45020382396163   -4.17563027358713   -0.44036463454962
C          -2.08338240856820   -2.84992980325282   -0.44269858486180
N          -1.80252270603827   -6.51608440786127   -0.10818262264462
N          -3.03659259638931   -6.85023707128579   -0.07460843142223
C          -3.32134189853453   -8.16097315162546   -0.22257899656830
C          -2.60014121303141   -9.28697436205673   -0.60745002281457
N          -3.41027121228209  -10.35830598273860   -0.67704063877151
C          -4.60501405988200   -9.93687507092792   -0.34674976355042
N          -4.62654274167685   -8.61017303423882   -0.06338314996387
C          -5.72355396463019   -7.86520326489224    0.32338290715678
C          -5.82976027101987   -6.58476145710151    0.78906089218043
C          -7.21279184590636   -6.38189378645237    1.01673286249623
C          -7.83133308494528   -7.54393578083261    0.67983264132682
O          -6.93329246073632   -8.45611796482408    0.25528645067746
H          -2.14383992883740   -0.06096374971095   -0.57553379393275
H          -0.50170963413152    2.07766734089984   -0.26302076747672
H           1.89110188879533    0.96195293451056    0.43277146145812
H           1.13096313780055   -3.16098873704982    0.55604561276985
H           0.47821222323684   -5.56455974070610    0.54058364641193
H          -3.44483794305443   -4.47234595377166   -0.73837376779893
H          -2.80520747484387   -2.10412963244514   -0.73710183289588
H          -1.55674553326716   -9.34784161975914   -0.84116075605475
H          -5.48100472883355  -10.55213610204751   -0.29842030375025
H          -5.02536258255351   -5.89794420346779    0.94438591839208
H          -7.67519780453397   -5.48956787918846    1.38457497643117
H          -8.85898257763158   -7.84568937733422    0.69335974078206
