25
         -46.377533634945          0.000934433857
C           1.75009163646430   -0.89616481963006    0.74524673480400
O           2.26627166621615    0.00415535522461   -0.20771994152150
C           2.87243682452684   -0.48425648282585   -1.31386965327615
C           3.35280204091870    0.47361022457597   -2.21703925755546
C           3.98522242779298    0.08794105485955   -3.37133267666268
C           4.16364902357860   -1.27332925992072   -3.66287201447406
C           3.67970471971090   -2.22773459729835   -2.75651204759801
C           3.04235243900317   -1.84118033116013   -1.59976330976964
N           4.80761902972426   -1.56313375886483   -4.83802253684680
N           4.99483848033407   -2.80381748371855   -5.09311707403265
C           5.62655402867303   -3.08973086162117   -6.25573300304034
C           6.15955047037020   -2.38817564220297   -7.33069829618402
N           6.68111856411875   -3.23644108423252   -8.23948358969518
C           6.49652828065881   -4.44796979846955   -7.77657371521523
N           5.86824957184997   -4.40181761942320   -6.59022898437241
F           5.52124462968932   -5.48371561455036   -5.83425183468646
H           1.32367714110630   -0.27723453950065    1.53291780016439
H           2.53700155061996   -1.52836056308895    1.16847389003011
H           0.96543113066736   -1.52726942851044    0.31616025747737
H           3.20944174571326    1.51515911560865   -1.97636877033565
H           4.35781761212235    0.81757921602352   -4.07277641762049
H           3.81616393119742   -3.27363217858410   -2.98598960842292
H           2.67865644534874   -2.59773244277347   -0.92173665895231
H           6.18114501002423   -1.32717009832484   -7.47296820725252
H           6.79533159957264   -5.35702836158914   -8.25677108496219
