28
         -48.638403520065          0.000360422843
H           0.99437217769597    0.02510220551748    0.06564936256042
C           2.07053791324006    0.00441479733104   -0.02152046149173
C           2.83245323303973    1.01066541838001    0.55507718857328
C           4.20609462213472    0.99700574902159    0.43443893722431
C           4.83916382767714   -0.04495882307575   -0.25321299580378
C           4.06209082616878   -1.05584961684418   -0.83559123389378
C           2.68896213451526   -1.02315235857230   -0.71949313994409
N           6.20695255851854    0.03920945097624   -0.37902133530194
N           6.82017640249670   -1.04325919112590   -0.66766493947989
C           8.14541555717777   -0.94868082926749   -0.91158075115687
C           9.03132231625554    0.10256436909464   -1.12286127035602
N          10.25446304199682   -0.37075413039477   -1.42087387132331
C          10.15740997382899   -1.67620991713438   -1.39860245508343
N           8.90266079048847   -2.09798523436414   -1.10165285691482
C           8.47814064113173   -3.40765911017066   -0.98965966792280
C           7.28919226509619   -3.94394742429963   -0.58247821495183
C           7.45639716529214   -5.34675303767489   -0.68077352279284
C           8.72181942540374   -5.55117790761467   -1.13238505030890
O           9.35493546273462   -4.37615503953587   -1.32370489596165
H           2.34741354238725    1.81119125761648    1.09407477871797
H           4.81666310926030    1.76894264239231    0.87637595254781
H           4.55961066722609   -1.83753572231380   -1.39076517538079
H           2.09170714343883   -1.79952686496815   -1.17572514364500
H           8.82240349435147    1.15223267460621   -1.08264207156111
H          10.96478858774735   -2.35404607134053   -1.59045500078367
H           6.42686337826631   -3.40161963851946   -0.25862102398981
H           6.72870966295094   -6.09473885842649   -0.44348359766145
H           9.27643007947888   -6.44138878929283   -1.35027754391435
