28
         -45.388713753150          0.000968350803
C           1.93334734927560   -0.79097635035520   -0.84275199750507
O           2.79161787505000   -0.08417798849099    0.02015925207325
C           3.33344546019324   -0.73243940115026    1.08224031609903
C           4.18007864733894    0.03207253563563    1.89427494774579
C           4.78821045214323   -0.52632672343531    2.99052598751622
C           4.55584835209075   -1.86840102452837    3.32541629081000
C           3.70883032972025   -2.62776113927047    2.50813065692359
C           3.10930057795166   -2.07233825896489    1.39900281865282
N           5.22595307423334   -2.35460814353038    4.42164102207699
N           4.84982350116507   -3.49934939485182    4.85639426950111
C           5.55312125945396   -4.02042001322470    5.88768303953257
C           6.73237258853280   -3.70531194157192    6.55825470380645
N           6.99152541069775   -4.63599804370421    7.49264031127168
C           6.00832167774841   -5.50533408564124    7.41825199219379
N           5.11295474457704   -5.19452539788421    6.46450039153734
C           3.91410091038078   -5.89531995704685    6.10786649681583
H           1.62847146780513   -0.07598171918581   -1.60512931576980
H           1.04630086446002   -1.15838038425353   -0.31641149082950
H           2.44724476981260   -1.63118201016004   -1.32071114596349
H           4.34091686291803    1.06540922603491    1.62952636133145
H           5.44202826875743    0.05632270554789    3.62010577222932
H           3.54456937069963   -3.66537858148553    2.75758930054102
H           2.47007886692696   -2.68721083157679    0.78375889422225
H           7.38332766751680   -2.87158775750299    6.39034878247598
H           5.92200261013199   -6.37329927036680    8.04267971556346
H           3.86824204236990   -6.83454301477488    6.65633167273880
H           3.91000258297943   -6.09431501891940    5.03563934613022
H           3.03750241507003   -5.28989801534170    6.34837160827961
