35
         -61.107149708322          0.000397880597
C          -1.14666066982065   -0.06199542222303   -0.31366564680062
C          -0.31374583884924    1.01574067296576   -0.16751104046353
C           0.92185283876386    0.45812941324533    0.20846293658475
N           0.84382774160514   -0.84931655856104    0.28438089577868
N          -0.41503931237260   -1.17288478014290   -0.03329328594647
C          -0.81389673001427   -2.50674989906977   -0.03970564508801
C           0.11995801925403   -3.48459004916448    0.31497016254675
C          -0.22995700012574   -4.81283624816736    0.31016530115263
C          -1.53353482220866   -5.20254645401663   -0.02803400786365
C          -2.46432086669543   -4.21570019950650   -0.38662772684424
C          -2.10850352100465   -2.88700690803733   -0.39779750818771
N          -1.79070314268695   -6.54930067413805   -0.05763662673556
N          -3.02109618163717   -6.89788559855280   -0.03039045187487
C          -3.28884031217625   -8.21095844868381   -0.18667372060873
C          -2.54518990314265   -9.31221511290310   -0.59988086957277
N          -3.32993644712584  -10.40055416860440   -0.68151503375822
C          -4.52960131468135  -10.01141875136957   -0.33016659963751
N          -4.58342568804808   -8.69191085216904   -0.02253198643113
C          -5.69725300181989   -7.98526434963483    0.38934650280399
C          -5.75332662648735   -6.73176523742971    0.92399014967953
C          -7.07487903409624   -6.33604492458445    1.22223651850773
C          -7.99539627458883   -7.28383211209631    0.91664784354614
S          -7.27888730764588   -8.69844057826312    0.24946209169783
H          -2.17975779945700   -0.10165552584171   -0.58895424553322
H          -0.54950216234813    2.05039000802711   -0.30734679126755
H           1.84500820954227    0.95925318109155    0.42113687449327
H           1.11453995113470   -3.16622036785950    0.58247985224039
H           0.48169162523980   -5.57601359779001    0.58244543496317
H          -3.45888087993085   -4.52200221199173   -0.67523326668529
H          -2.83906546110849   -2.14843318039952   -0.68880186938463
H          -1.50359755750927   -9.34072093520941   -0.84745884146380
H          -5.38816973660248  -10.65232936433308   -0.28447692001853
H          -4.88059853890820   -6.12917887022547    1.09086555967067
H          -7.32415112373536   -5.38227615334967    1.65060194336856
H          -9.05888113071260   -7.25024574101140    1.04290001713183
