25
         -42.215865139014          0.000796474829
C           1.59918860377940   -0.06231290082265   -0.81733773753310
O           2.77420513203769    0.06295509597262   -0.05129692483536
C           3.28826957672358   -1.04018280635588    0.54684346319458
C           4.45632425151736   -0.83816766625613    1.29269155859686
C           5.06872649133831   -1.88784294067795    1.92986975328413
C           4.52226753100956   -3.17784252213552    1.86010214334075
C           3.35279313027986   -3.37302695998650    1.11383896002936
C           2.74601735075188   -2.32287777299981    0.46082189209107
N           5.21624467926017   -4.17461648897617    2.49984153366223
N           4.62026325319190   -5.30166651742327    2.62017527179224
C           5.33142093337070   -6.30441472296768    3.18751789972396
C           6.64705256350149   -6.50152967496229    3.59290966424960
N           6.80315133159725   -7.75353750660267    4.06258223797272
C           5.63024415322148   -8.32996876301779    3.96329355360616
N           4.70437533534736   -7.50587702931804    3.43541535761932
H           3.73132181920360   -7.69255803313386    3.25791082221392
H           1.38164733901787    0.93813293378190   -1.18778539145517
H           0.75891042448421   -0.41356652997351   -0.20979695223446
H           1.74346228772004   -0.73838382697243   -1.66620568261243
H           4.85886663059065    0.16113965505996    1.34453610081685
H           5.96960413048228   -1.74035781158861    2.50435134879434
H           2.94337651162104   -4.36983714191014    1.04784389979831
H           1.85265050869473   -2.50817040094312   -0.11560439576332
H           7.46052461467529   -5.80663327531439    3.55285101522134
H           5.42382141658141   -9.33853639247715    4.26237060842555
