23
         -38.421534304162          0.000290884663
N           1.07527104171200    0.05417544286561    0.04908969071648
C           2.43802652778916    0.06261689911356   -0.08103958708915
C           3.13413193561852    1.27109651965553   -0.20931983176888
C           4.50435110605774    1.28239735816802   -0.29230505651211
C           5.23501079584311    0.08653944715121   -0.23300249280898
C           4.53447745708782   -1.12480427558482   -0.10045989900993
C           3.16468171279141   -1.13481882793676   -0.03300725638000
N           6.59429856733921    0.19767068306423   -0.35088808634240
N           7.28096808156441   -0.86268755184977   -0.12657866185817
C           8.61885475350773   -0.76388792374040   -0.31531795395418
C           9.48957562747613    0.17003003977360   -0.86425433015496
N          10.75149675903732   -0.30282480572880   -0.83884233732645
C          10.68499707648639   -1.49061220374906   -0.29089117331088
N           9.42084249365878   -1.82630983214934    0.03820051396482
H           9.09201796421591   -2.67110936873509    0.47536359911967
H           0.57199688539070    0.88668437477333   -0.20563321847662
H           0.59284111166377   -0.81762391104693   -0.08644876757544
H           2.57669506703899    2.19641471588294   -0.24642355065076
H           5.04653521603525    2.20931935257959   -0.39545794634666
H           5.09863125349783   -2.04461912163666   -0.06980076526036
H           2.62869658967107   -2.06976194238538    0.05703739236246
H           9.25441908386816    1.13029820693624   -1.27535821157347
H          11.52917289264884   -2.12928327542025   -0.12107206976389
