32
         -55.046075819108          0.000481695129
C           1.37830305992452    0.27213128937561    0.30983014473158
O           2.69712680902335    0.25937297156341   -0.18285332424512
C           3.05933818356382   -0.70480228235944   -1.06423881556243
C           4.38301267745282   -0.64610757238792   -1.51919361214606
C           4.85208738389860   -1.56371044877411   -2.42456565111223
C           4.01816395366071   -2.59114170754844   -2.89080881849673
C           2.69549991069254   -2.64554915451121   -2.43141427867446
C           2.21845193341174   -1.71311103239225   -1.53661119178877
N           4.54973933722686   -3.44371035124327   -3.82491870192318
N           3.91069426162243   -4.53203457373078   -4.03444243270375
C           4.34236317897453   -5.31223711019064   -5.04827511265006
C           5.12904686348467   -5.08618554350182   -6.17178074985351
N           5.13891309564293   -6.17579587500002   -6.96215687860552
C           4.39258052601770   -7.06649126243870   -6.36265338831536
N           3.86278085556282   -6.60865710810929   -5.19911759464863
C           3.05517041097998   -7.31159716355260   -4.32693864136057
C           2.68352575011916   -6.97272642364817   -3.05912986582174
C           1.84807006040588   -7.94498026533734   -2.46804346965798
C           1.60158577000983   -9.00032185647670   -3.28290843360298
S           2.38087583601448   -8.84196658796459   -4.80911290779120
H           1.32533368149583    1.12358844580333    0.98634831924729
H           1.14676618412387   -0.64366439393154    0.86266173814102
H           0.65027898562320    0.40565519892644   -0.49659168165637
H           5.01446733378216    0.14309009814337   -1.14261068592348
H           5.86928311601309   -1.52351866937747   -2.78093331341807
H           2.04737009844005   -3.42177285980365   -2.81098491826939
H           1.19055707171375   -1.77329256544253   -1.21349133420047
H           5.64821550904008   -4.18691734154629   -6.43382138642540
H           4.20640976787825   -8.05570848629169   -6.73236210395583
H           2.99849106839193   -6.06332059848661   -2.58280572630382
H           1.45285759513890   -7.85839713705226   -1.47214516474408
H           1.01209973067026   -9.87384963271367   -3.08935001826182
