35
         -61.592361843850          0.000701142652
C          -1.22652265890322   -0.06099722750444    0.03078134310454
C          -0.39180877397778    1.02405152093112    0.06818742413660
C           0.90361039091668    0.47387691922614    0.06771522434339
N           0.85785916644276   -0.83637663732620    0.03108567699454
N          -0.43848463542011   -1.16974820520222    0.00870352980770
C          -0.81494851602391   -2.50820232261037   -0.03264597425500
C           0.18593759354794   -3.48341455251576   -0.08836751285145
C          -0.14348441626789   -4.81507685019028   -0.14377906694745
C          -1.48710092753443   -5.21701397701663   -0.11447430594797
C          -2.48575180863645   -4.23217047576919   -0.06346293969452
C          -2.15531714408557   -2.89710562051527   -0.03160591984775
N          -1.73818323334857   -6.55821522141043   -0.22453569919917
N          -2.86681789427390   -6.97704502058018    0.20870241103680
C          -3.16743237562463   -8.27886192685273    0.00024855496401
C          -2.58461593395302   -9.31780145924362   -0.72180709924114
N          -3.33662812456756  -10.42488388305011   -0.62547356027116
C          -4.36147383256980  -10.10976251499610    0.13185007631018
N          -4.32566013694832   -8.82180936109363    0.54301378336115
C          -5.24148682192526   -8.16894263468313    1.34871990996392
C          -6.42427048725354   -8.57066041349130    1.92439516943344
N          -6.94949429688296   -7.54078371772528    2.62972648190232
C          -6.12164732858489   -6.54146121235440    2.49394905701991
N          -5.05946535815194   -6.86698412145478    1.72260160379237
H          -4.24683377456387   -6.33751084595849    1.41358062396921
H          -2.29554447071180   -0.10782975342961    0.01621308176245
H          -0.66314292767293    2.05898536928266    0.09281935570416
H           1.84661700032660    0.98277159424573    0.09139912591937
H           1.21382076263648   -3.15860483297879   -0.09437528293004
H           0.62027853185575   -5.57512885781308   -0.18749578081740
H          -3.52326466767980   -4.53350902896762   -0.08873506616579
H          -2.94354630449794   -2.16108506374755   -0.00645977701485
H          -1.67968537019875   -9.29015060733546   -1.29389527992897
H          -5.14644474867700  -10.78641900385639    0.40215062709440
H          -6.91952478933463   -9.51815883140632    1.87382528596577
H          -6.25397168745558   -5.57495122260477    2.93579491852657
