26
         -46.738334446747          0.000724277374
C           1.58983638266663   -0.28505817537325    0.90845109990910
O           2.21648675238207    0.08871578642239   -0.29755079263623
C           2.75733442523368   -0.86771395377950   -1.08313944630971
C           3.35058208111439   -0.41559544807302   -2.27057299362527
C           3.92880070580569   -1.30170033147474   -3.14239601972917
C           3.93538092080304   -2.67662718154683   -2.85669074446343
C           3.34123965205107   -3.12404112217966   -1.66653170634998
C           2.76070664314826   -2.23488320691583   -0.79233172497949
N           4.53335346644034   -3.48763125860467   -3.78369892588436
N           4.54685696617139   -4.74076218085739   -3.51400976503408
C           5.12108303931406   -5.55132095881412   -4.43067205035192
C           5.69060605655865   -5.41984226597099   -5.68466745911106
N           6.09234462443906   -6.62586674333086   -6.15070253487236
C           5.79612051893072   -7.49949884476078   -5.23828527398504
N           5.19378399443157   -6.91835194951088   -4.15129585580343
C           4.76905519888316   -7.52093977631617   -3.05080931165429
N           4.41330850137025   -8.06062871216199   -2.10711562646203
H           1.22756982942713    0.64173635609158    1.35001358716049
H           2.29534006238884   -0.76181820392726    1.59556622223349
H           0.74407553247251   -0.95551248363361    0.72906198868173
H           3.33618476666502    0.64368969655881   -2.47294531006486
H           4.38721078138638   -0.96390527349939   -4.05834313555732
H           3.34988785087152   -4.18202890348960   -1.45145954641214
H           2.31168963674567   -2.60714139652794    0.11532548138469
H           5.81897662938122   -4.52357903923878   -6.25619609493412
H           5.98598498091723   -8.55271442907793   -5.29845406113670
