30
         -51.697598657183          0.000701101464
C          -1.21539347394576   -0.04526441061347    0.00513776255800
N          -0.43733554539890    1.05940834987226    0.02801455735712
C           0.79450832552004    0.62878613237569    0.01222476496994
N           0.85513267029892   -0.72124206597036   -0.01095383552562
H           1.68638791228904   -1.28752823962148   -0.04577768041188
C          -0.43871076327378   -1.18812000788954   -0.02079063048142
C          -0.79863771048161   -2.58525250305368   -0.04705876003477
C           0.14348891389293   -3.59462371285796    0.18896425703564
C          -0.21392698510987   -4.92109797069890    0.14051653359717
C          -1.53783266405989   -5.29202558599226   -0.12732854856716
C          -2.48678546611374   -4.28276070256633   -0.35818993696574
C          -2.12061192283918   -2.96042622692574   -0.32178705514259
N          -1.79275666613124   -6.63619720600984   -0.21740562920563
N          -3.02093901294771   -6.99474899016361   -0.16774316267248
C          -3.29890459132581   -8.30170869869632   -0.35317149436682
C          -2.61879519436846   -9.47251297136406   -0.68850768817115
N          -3.48106173420352  -10.49263794179306   -0.77993476123683
C          -4.67338624072369  -10.00136305281490   -0.49831304133786
N          -4.62221169847587   -8.68716535078848   -0.23932137633472
N          -5.64640928060647   -7.84439407957227    0.16242219516047
H          -2.28267666428458    0.04331742757721    0.02425573024334
H           1.66298520252372    1.25687144555226    0.01754622071014
H           1.16786012072603   -3.33983344610422    0.42175929444018
H           0.51041622672886   -5.69965252669549    0.32348436267278
H          -3.50263687160268   -4.56841722857894   -0.58785059213130
H          -2.85429550708077   -2.19379347615451   -0.51770759223014
H          -1.56961766625907   -9.59647531984451   -0.86350052824488
H          -5.58132146315286  -10.57012379423124   -0.49160769719471
H          -6.37255995255934   -7.78260704838304   -0.54798019947004
H          -5.22630229703487   -6.92783079799330    0.31609453098097
