25
         -41.828222426691          0.000505101934
N           1.23711744237288   -0.09357020404088    0.26695245911210
C           2.59625145018813   -0.07320163810553    0.10093188934802
C           3.26747140843611    1.13375364485852   -0.13099498833077
C           4.63460927571378    1.16094040417820   -0.24931964194210
C           5.38887392175176   -0.01519339493393   -0.12473606764114
C           4.71288705981678   -1.22438738186228    0.11129279209959
C           3.34521238844690   -1.25168922623076    0.21537955588651
N           6.74171645077865    0.11725085212674   -0.28642673263880
N           7.46301515552089   -0.91074408849093   -0.02231926431668
C           8.79341920984479   -0.79823156642473   -0.24185452216652
C           9.67852279889403    0.12457823325965   -0.79194762330348
N          10.92503940704855   -0.37301222088900   -0.78487378336056
C          10.84578104552301   -1.56750620248900   -0.23420024362464
N           9.58393821055672   -1.87658431602804    0.10462703418511
N           9.11815005516682   -3.00631066342058    0.76435953009306
H           0.71430868236100    0.70997164184060   -0.03715262286384
H           0.76658194872662   -0.97998776060060    0.20459693977745
H           2.69338883622427    2.04523390395398   -0.21919323453074
H           5.15829235704048    2.08637677029761   -0.43101680358593
H           5.28810470244090   -2.13461310098585    0.19124327774599
H           2.82931568389436   -2.18673946595973    0.38579271289406
H           9.45764419710759    1.09571244313826   -1.18527116312379
H          11.67419784892706   -2.23010807288237   -0.08473668847871
H           9.26577550064996   -3.84173819504623    0.20132885284057
H           8.11832496256670   -2.86024039526231    0.90847833592565
