35
         -61.954008724706          0.000370132431
C          -1.24942163745332   -0.02392678046589    0.01728004680768
C          -0.35403800930920    1.06346055701808    0.07097170900338
C           0.89443181249415    0.51788295589271    0.10238173940416
O           0.83090953200300   -0.81853462491598    0.07088757848065
C          -0.47844041314854   -1.16494279756513    0.01953824991987
C          -0.83364292290527   -2.56379759941923   -0.01858948955493
C           0.16701177446388   -3.54512865661515   -0.02417918285450
C          -0.15563821661445   -4.87850662294586   -0.07266931412054
C          -1.49875908169948   -5.28371212022013   -0.08699963733470
C          -2.50304561674134   -4.30021017079959   -0.08642689497561
C          -2.17388851162399   -2.96743504171120   -0.06120095833509
N          -1.74121701075223   -6.62433164846159   -0.19405249281053
N          -2.88300281281136   -7.04890969217631    0.19904098576330
C          -3.16968167541658   -8.35141067935026   -0.02712061452719
C          -2.56362284866833   -9.37836710074374   -0.74623931474156
N          -3.31300192632440  -10.49038964562768   -0.68372916467497
C          -4.35862730257249  -10.18904477731836    0.04972969636340
N          -4.33940982533179   -8.90578054635040    0.47776121525719
C          -5.27706133303085   -8.26747441580157    1.26957906792738
C          -6.46696257302245   -8.68409500915013    1.81910212789794
N          -7.01443333106381   -7.66455796938353    2.52293835828707
C          -6.19235439763709   -6.65746465318626    2.41162971076633
N          -5.11317196122270   -6.96742300602792    1.65787558930163
H          -4.29894916956429   -6.42928103601823    1.36761079863035
H          -2.31751623266988    0.03501311838968   -0.01974533515704
H          -0.60314440666200    2.10448270878472    0.08451552108321
H           1.86935617828306    0.96204960755976    0.14559375447481
H           1.20071710876242   -3.23629889663844    0.00209668840437
H           0.60993914403870   -5.63855703028651   -0.07631157244688
H          -3.53702822906094   -4.60954993773402   -0.14579122878415
H          -2.95480409775064   -2.22315125141007   -0.07564233592530
H          -1.64444388762294   -9.33998594830640   -1.29444915267285
H          -5.14821658185250  -10.87131677042422    0.29105088820766
H          -6.95370612275645   -9.63488887147293    1.75119232723982
H          -6.34056541475540   -5.69582564711890    2.85897063569578
