28
         -48.276883960395          0.000652820660
C          -1.11490454783389   -0.02695896739179   -0.27321189814519
C          -0.26908759172562    1.04015542777492   -0.12202130864869
C           0.96336591260356    0.46495747965089    0.23670717189986
N           0.87198679059024   -0.84249043018067    0.29793141358810
N          -0.39330271079493   -1.14875443529758   -0.01167668659494
C          -0.80599329453330   -2.47866536803969   -0.03472391257677
C           0.13435098578913   -3.47455874311748    0.24279011190912
C          -0.22947054055165   -4.79917912302292    0.21611390476299
C          -1.55170465434576   -5.16703354181802   -0.06911995059814
C          -2.49013279711548   -4.16129430874025   -0.34524568317308
C          -2.12228497670745   -2.83611116459958   -0.33327252323738
N          -1.81980415933932   -6.51184076954546   -0.12358226219697
N          -3.05204843796711   -6.85534750604846   -0.09829299444587
C          -3.31543497179954   -8.17503288002381   -0.23525715726156
C          -2.57862757692658   -9.32430640131917   -0.50903335879631
N          -3.39377896304493  -10.39280546476902   -0.56032601519586
C          -4.60306518425199   -9.94264279005509   -0.32446679875325
N          -4.61812114860012   -8.61091245494124   -0.12628824051583
H          -5.40722001239598   -8.01916958871654    0.07615627476925
H          -2.14971343187628   -0.05249125062252   -0.54364587095690
H          -0.49462081674704    2.07880851564479   -0.24884730090286
H           1.89354037617088    0.95370168469525    0.44790288066813
H           1.14429963988943   -3.17301314001018    0.46932177952346
H           0.48744382083927   -5.57659734742018    0.42792645401232
H          -3.50231011919756   -4.45176820169165   -0.58288607981468
H          -2.86099025041683   -2.08199466136004   -0.55626528444573
H          -1.52339026780824   -9.40726122204722   -0.67199214328851
H          -5.48131107190265  -10.55678334698736   -0.29399452158449
