35
         -62.295724601552          0.000787204448
C          -1.10313177647948    0.00068298398316   -0.32672266813260
C          -0.21437187348251    1.07207479391838   -0.10345041013071
C           0.95347217102008    0.50738028607139    0.31347220098595
O           0.84670148500003   -0.82603556301156    0.36196724829513
C          -0.40999490880676   -1.15076840118940   -0.02813198372821
C          -0.80025461639224   -2.54124945817958   -0.05710602602159
C           0.11225843383332   -3.53689879938954    0.31514923621104
C          -0.24695388387878   -4.86249780977190    0.29404925531899
C          -1.54444917655421   -5.23973489868827   -0.07972854730325
C          -2.45700851368518   -4.24357986753958   -0.46469834695621
C          -2.08792936500779   -2.92107835156795   -0.45654200577880
N          -1.81401612430431   -6.58326452850931   -0.11147134032965
N          -3.04887929339552   -6.91936918454609   -0.10416424850800
C          -3.32841076934351   -8.23157032051611   -0.25170535533932
C          -2.59898431051841   -9.36043574593342   -0.61006642851040
N          -3.40712225451963  -10.43327387038248   -0.68768520942252
C          -4.60862211944299  -10.00955051232719   -0.38671434927658
N          -4.63688664181259   -8.68027091872458   -0.11609258935258
C          -5.74180019689360   -7.93271797344234    0.24096957243524
C          -5.85895661214410   -6.64736869404649    0.68933830689165
C          -7.24607734242214   -6.44456816359774    0.89058629597008
C          -7.85665720632125   -7.61164321948077    0.55495277897865
O          -6.94946387667278   -8.52716190583155    0.15822581920210
H          -2.11647757997146    0.07618908945281   -0.66285811254571
H          -0.41527949930243    2.11562579278457   -0.23327070258637
H           1.89560690018696    0.93498675939645    0.59469528669967
H           1.10734059085097   -3.24744323100234    0.61670708150722
H           0.44934540858305   -5.63401068674038    0.58353936113293
H          -3.44399072346155   -4.54374766587417   -0.78473156660350
H          -2.79572125515182   -2.16521693993921   -0.75993236628437
H          -1.55069422264740   -9.42322905532816   -0.82006241620148
H          -5.48468751367327  -10.62552726043474   -0.35187792707794
H          -5.05941728978495   -5.95626032651571    0.84986750485452
H          -7.71639758800369   -5.54893766212058    1.23981725495316
H          -8.88399845539824   -7.91531869097722    0.55288539665428
