28
         -48.296551240542          0.000764778800
H           1.21614985845063   -0.12237636673338    0.80701023381041
C           2.28421665883762   -0.10731118150781    0.64996754189295
C           3.07597908093000    0.79263639868611    1.34989985214049
C           4.43819145731513    0.82915110002684    1.14153800231631
C           5.03356362004312   -0.06287324230567    0.24110646827292
C           4.22591440466209   -0.96671941423867   -0.46427443438611
C           2.86237651724366   -0.97850420401210   -0.26168842010965
N           6.38548903268069    0.06660594595744    0.03666414258498
N           7.00489402784096   -0.96605294337777   -0.38865709107731
C           8.31180455130791   -0.82670788737058   -0.70735027022296
C           9.18923469658409    0.24914143250561   -0.81653399659884
N          10.39326438310412   -0.17729517605079   -1.22740184344439
C          10.29320155505041   -1.47812354625239   -1.37392691798697
N           9.05680167411037   -1.93942079700752   -1.07976269993936
C           8.61365143609061   -3.24947422280987   -1.12352626830963
C           9.22527570381113   -4.42440419534619   -1.49463380505531
N           8.34942083843061   -5.44745935820966   -1.35335295685093
C           7.23919278924029   -4.92299993902834   -0.91135376122452
N           7.34186122588388   -3.58421013244149   -0.75112388932173
H           6.67757043294090   -2.87659225771918   -0.44304407089043
H           2.62195524572172    1.47252849445421    2.05528130211520
H           5.07063186086608    1.51984575239204    1.67687972787867
H           4.68360571504497   -1.62047174921804   -1.19319984119546
H           2.24321604109780   -1.66738131554126   -0.81732755258744
H           8.98515633720152    1.28278205303124   -0.62403198958802
H          11.09296227203154   -2.11612232233595   -1.69116144354168
H          10.22105515043152   -4.59187194745651   -1.84971163745806
H           6.34704343304658   -5.47453897808987   -0.69517438122374
