35
         -61.121034625673          0.000407362513
C          -1.16408095768629   -0.03414311563789   -0.10750193543457
N          -0.37670655070660    1.06286299629864   -0.06992404133727
C           0.84907538008534    0.62037868592562   -0.00028335133878
N           0.89586981069722   -0.72991634365488    0.01727926919875
H           1.72191719907561   -1.30334486095192    0.05233419743504
C          -0.40012909689422   -1.18533794291364   -0.05462522860820
C          -0.77335452044438   -2.57864880107437   -0.05706980578855
C           0.16046609827050   -3.59227225642751    0.19600221012165
C          -0.20996138552353   -4.91556867679079    0.17863692165241
C          -1.53885359856233   -5.27921349783710   -0.07564454163585
C          -2.47887821483212   -4.26677346058529   -0.33083510943826
C          -2.09957187001783   -2.94785187103869   -0.32301164441949
N          -1.80929451417020   -6.62187357655885   -0.12238553489809
N          -3.04383479152053   -6.95916565059676   -0.06734853046741
C          -3.32047518316381   -8.27054105872781   -0.22400349247526
C          -2.57539206490005   -9.38231675436279   -0.60509485285921
N          -3.36356997108329  -10.46861849440587   -0.68153591972885
C          -4.56758195987842  -10.06721051631300   -0.35996471560060
N          -4.61984413316810   -8.74290650784588   -0.07337058523073
C          -5.73973416761498   -8.02425851219050    0.29965061034737
C          -5.80380899660569   -6.75964734018622    0.80635095508273
C          -7.13034428688950   -6.35286742654695    1.06438006509298
C          -8.04681532181853   -7.30470441096163    0.75930483228838
S          -7.32066756850587   -8.73495350676624    0.13758478165762
H          -2.22906020317140    0.06681257889887   -0.15829657857482
H           1.72261409570931    1.23996999121221    0.04028905145671
H           1.18918260122443   -3.34385244742808    0.41545580162253
H           0.50745438157711   -5.69695257524498    0.37604924899024
H          -3.49650047625383   -4.55082599783929   -0.55478810518932
H          -2.82664678065273   -2.17882400680305   -0.53280577031974
H          -1.52889540249568   -9.42075703221517   -0.82956213443254
H          -5.43066369315068  -10.70245385088216   -0.32105294447382
H          -4.93232732737306   -6.15740800627848    0.98117279225327
H          -7.38599051317499   -5.38900732293777    1.46549784873694
H          -9.11281601638142   -7.26519843033233    0.85994623631481
