28
         -47.811067700327          0.000921338013
H           1.18191804182788    0.07021253529018    0.57106037715017
C           2.25542692635678    0.04554434213436    0.45803176679418
C           3.05315713078698    0.88813262428035    1.21970386330835
C           4.42360613940467    0.87162731984207    1.06890865948862
C           5.01735993884162   -0.01500835745824    0.16329697179257
C           4.20472834484274   -0.86087555962181   -0.60436408744558
C           2.83478596504646   -0.82192209202167   -0.45625150750952
N           6.38333969124855    0.06191381497336    0.02457762138736
N           6.96824926845658   -0.96242512313148   -0.46263368323689
C           8.28599780924093   -0.84394934383279   -0.73344597662403
C           9.14855616275794    0.23944063465093   -0.86769437544499
N          10.36170258716951   -0.17695481959337   -1.27097528500924
C          10.27931422104857   -1.47826340068451   -1.38463534175980
N           9.04511093604063   -1.95462774032550   -1.08462878096842
C           8.64845333548143   -3.27832727787444   -1.09812326430530
C           7.47338054600488   -3.81532268543011   -0.66080638202396
C           7.42577316263620   -5.21482737894099   -0.83813616083165
C           8.55371793599838   -5.71872360665938   -1.39736193916158
S           9.71794532948386   -4.49729756015370   -1.73230804273134
H           2.59848494491789    1.56490751868302    1.92775870368466
H           5.06118693933190    1.51812461756868    1.65193066399510
H           4.67314288535791   -1.51729458806907   -1.32289814792204
H           2.20975855454836   -1.46806407759734   -1.05603400049846
H           8.92365806213516    1.27438303924270   -0.70880081346903
H          11.08888406455081   -2.11567642206106   -1.68204758962644
H           6.68449478292053   -3.22395251856022   -0.23519369343104
H           6.58263559741207   -5.81827064107053   -0.55464209776204
H           8.78649069615090   -6.73687325357763   -1.63686745783871
