21
         -39.141639884032          0.000420960259
H           1.08688612258603    0.01850083933580    0.14730508727253
C           2.16501073970812    0.03757939913649    0.08626412162586
C           2.82741607946323    1.24500508802498   -0.08277130828483
C           4.20356359790484    1.27299431996270   -0.17269611928128
C           4.93529243219742    0.08300788214803   -0.08151370707933
C           4.25897347145582   -1.13310681278043    0.09189752056345
C           2.88337920209241   -1.14760717077905    0.17172794234909
N           6.30036167273540    0.20080551822148   -0.21781029795847
N           6.98776360287819   -0.84277508863048    0.04077748195900
C           8.32420985037284   -0.75239271497127   -0.15343267429255
C           9.21950008271781    0.17115586744143   -0.68030753268611
N          10.47419827707426   -0.31819877910673   -0.65541850603368
C          10.40398663281934   -1.51618654475739   -0.12978466052094
N           9.13243845213112   -1.81474340372451    0.17889778438652
F           8.70681917548626   -2.97934595740397    0.74432159969665
H           2.26381790522293    2.16395178570429   -0.14794565699765
H           4.74072798149837    2.19950727239361   -0.30325418549047
H           4.83603898429652   -2.04358050834122    0.14947995095899
H           2.36130806886588   -2.08484758695987    0.29863587006473
H           9.00173134738349    1.14320278221888   -1.07315014457890
H          11.22830632110958   -2.17887618713263    0.03678743432747
