31
         -50.983842947132          0.000730780577
C          -1.16429694776852   -0.10105303029888   -0.01964852765722
C          -0.42043958090563    1.09151072316189    0.03731544116385
C           0.91676587194835    0.87028477251290    0.13349521849417
S           1.29439729838411   -0.80186089355058    0.16132031674844
C          -0.39098940002327   -1.23320719767645    0.03627973777427
C          -0.79906633946276   -2.61723420208631    0.00180406927071
C           0.13676136024765   -3.64370147310474    0.18478333118777
C          -0.23786594338292   -4.96432314093557    0.14008880878054
C          -1.57755060301961   -5.31373702105210   -0.07638457794880
C          -2.52014823744412   -4.28944040993148   -0.26126967389161
C          -2.13658404860198   -2.97200695675180   -0.22519441296815
N          -1.86107923589068   -6.65309704162818   -0.16154957348833
N          -3.09940016534855   -6.97748080447798   -0.11257873875292
C          -3.39800173471233   -8.28382564537326   -0.28132930817531
C          -2.69236437790849   -9.44736659903996   -0.58196351972558
N          -3.53701118465999  -10.48864533500669   -0.65609358371998
C          -4.73381935452695  -10.00160974664916   -0.41017870130580
N          -4.71695547768536   -8.67862383450846   -0.17888371381250
C          -5.81817576226571   -7.81183478247326    0.12355351359730
H          -2.23622659126879   -0.11387990968055   -0.09058426546631
H          -0.86145101472872    2.07197467420120    0.00753228782329
H           1.70972037157174    1.58924341384556    0.19202166787498
H           1.17119516376326   -3.38427239477053    0.35982751736168
H           0.48420506422097   -5.75331457756092    0.28195813231799
H          -3.54805404740246   -4.56289805748721   -0.44701904891157
H          -2.87534610824525   -2.20092075131621   -0.38200354120539
H          -1.63952673696594   -9.55694790088698   -0.74498596802016
H          -5.63163480338673  -10.58845620187347   -0.39577192609408
H          -6.74656428117652   -8.37813832384444    0.07885187354880
H          -5.85234812113960   -6.99332615196120   -0.59662243682687
H          -5.69725503221513   -7.38595119979508    1.12129960202717
