28
         -47.810808756454          0.000855213306
C          -1.12733572061990   -0.07835065341710   -0.03188958451321
C          -0.37511092515079    1.10855061905643    0.02909863690449
C           0.95935416204943    0.87744560795601    0.14115058210341
S           1.32406394699672   -0.79680611025578    0.17908276939239
C          -0.36337661334833   -1.21612445794880    0.03636298956917
C          -0.78135953050675   -2.59702315267915    0.00152345239050
C           0.14638614348456   -3.62965696517449    0.18941265606878
C          -0.23771548015447   -4.94734569149603    0.14374419014044
C          -1.57904640346356   -5.28763377351214   -0.07854122989239
C          -2.51366849412897   -4.25715194999115   -0.26822485409392
C          -2.12032530242916   -2.94275722084159   -0.23147647268658
N          -1.86847494499602   -6.62536824170522   -0.15995541460849
N          -3.10780967636528   -6.94778551889277   -0.12902489857780
C          -3.39652359574227   -8.25942288487500   -0.28737258599710
C          -2.68107480127226   -9.42473969503332   -0.54815011856423
N          -3.52006809403528  -10.47367986667894   -0.62380811212896
C          -4.72369456647141   -9.99519233669253   -0.41877162814821
N          -4.71125242275891   -8.66461463313647   -0.21151343669719
H          -5.48921437265802   -8.05215358616636   -0.02974837054267
H          -2.19827892753548   -0.08358106066500   -0.11491154073215
H          -0.80792207000952    2.09187895777884   -0.00846861739563
H           1.75689615863478    1.59048138863658    0.20456514557008
H           1.18181662006819   -3.37737626132724    0.36850604725546
H           0.47735539513564   -5.74156121440551    0.28926578116736
H          -3.54227322941089   -4.52404890771261   -0.45867283302983
H          -2.85251326311045   -2.16670524212618   -0.39141452595836
H          -1.62433081851042   -9.53431929082337   -0.68144043266875
H          -5.61745317369132  -10.58717785787148   -0.41598759432646
