24
         -38.153957074628          0.000754498345
H           1.02612822628241   -0.01683056482532    0.20859376133359
C           2.09851579759419   -0.01849637961501    0.08014451080951
C           2.87634905211883    0.92940912751543    0.72961650190953
C           4.24476980489392    0.94035180745223    0.55883762624598
C           4.85773778817610   -0.02144391211132   -0.25246842773298
C           4.06486210564709   -0.97376493998768   -0.90692812100688
C           2.69633776119735   -0.96348362245612   -0.74131758232567
N           6.22084201902932    0.08297795047006   -0.41216854756359
N           6.82953045723662   -0.96172259044485   -0.82307955368458
C           8.15442355820174   -0.84458340797367   -1.06699658961612
C           9.07799723076350    0.19739466904052   -1.11116809320299
N          10.28679150389745   -0.27668361323758   -1.45379974552966
C          10.13316700221862   -1.57233059308981   -1.61877232545914
N           8.86986141744575   -1.97552842760958   -1.40491173210415
C           8.33469677034003   -3.30337392364180   -1.48573690807271
H           2.40739686869361    1.66575411831854    1.36596540193488
H           4.86725334752352    1.66846697374641    1.05543114167018
H           4.54796899276436   -1.69475086001197   -1.54966130623719
H           2.08664468612828   -1.69421104802859   -1.25348761096981
H           8.90861072718071    1.23761941343702   -0.92051500465405
H          10.92379839940107   -2.24295013010068   -1.89423136054073
H           9.12896354154385   -3.99574292265660   -1.75901092662179
H           7.54249050464889   -3.34097898671868   -2.23512117333667
H           7.91013243707277   -3.59424813747103   -0.52353393524503
