35
         -61.468487290793          0.000810221953
C          -1.14968086324677   -0.01588018700811   -0.32204746263056
C          -0.26241682856578    1.06203957559514   -0.12559876168522
C           0.91044699318936    0.50831527260094    0.29205274955761
O           0.80813606074737   -0.82426421375932    0.36587296109515
C          -0.45068331385407   -1.15967296512096   -0.00785034999927
C          -0.83543656846604   -2.55178703417545   -0.01465818027592
C           0.08547110334735   -3.53908560643224    0.35923507227700
C          -0.26517239764859   -4.86695193409738    0.34772547801182
C          -1.56176638004547   -5.25504086124712   -0.01838634750191
C          -2.48518487501348   -4.26665995648956   -0.39774863401734
C          -2.12467567842447   -2.94182814004828   -0.39884710513108
N          -1.81807858150964   -6.60074616809242   -0.05012715015847
N          -3.04911547576421   -6.95045636748796   -0.04913890457368
C          -3.31180285295159   -8.26470767837361   -0.20648344135592
C          -2.55685449189302   -9.36709122348590   -0.59401698582306
N          -3.33722834805856  -10.45869570710042   -0.68388125395374
C          -4.54496291681505  -10.06945912189173   -0.36283570151469
N          -4.60882433419496   -8.74741993109999   -0.06735868929876
C          -5.73321227704249   -8.04050185781188    0.31329862869815
C          -5.80678481132203   -6.77328395223059    0.81304230285451
C          -7.13532644429908   -6.38249755843515    1.08583450841176
C          -8.04323516032038   -7.34846314426464    0.80028795776859
S          -7.30704335916890   -8.77347869998253    0.17785208799910
H          -2.16575411185141    0.05058744686578   -0.65177248804813
H          -0.46728428679681    2.10245836437460   -0.27347142595875
H           1.85368461286265    0.94372045036020    0.55727436068322
H           1.08083463656073   -3.24184850163334    0.65223153076719
H           0.43802032987692   -5.63245331338292    0.63659497669091
H          -3.47350641006081   -4.57345049043767   -0.70740684697305
H          -2.84006233706246   -2.19208097693398   -0.69969770327813
H          -1.50985329428153   -9.39529219360529   -0.81726540746909
H          -5.40288639810464  -10.71215070906841   -0.33087912367708
H          -4.94141716737753   -6.15698104313640    0.97084398601993
H          -7.39754387793843   -5.41934684806202    1.48479918512173
H          -9.10828989450616   -7.32189472490130    0.91504617736665
