29
         -52.332834908587          0.000964938149
C          -1.15945521802524   -0.09646992743271   -0.02464407036360
C          -0.41871421103691    1.09681603974292    0.01021273622726
C           0.92197828742065    0.87854866033812    0.08279973413618
S           1.30628087896600   -0.78936914752826    0.11440269902689
C          -0.38022687734318   -1.22718826096633    0.02321403245247
C          -0.78454498073808   -2.61033226503792    0.00370138979773
C           0.16092553496754   -3.63305796987038    0.16685211485592
C          -0.21288981177283   -4.95356298190403    0.14653904101994
C          -1.55797428458578   -5.30591528140856   -0.04301578851419
C          -2.51210001143612   -4.28519285367975   -0.20698348309923
C          -2.13007249411213   -2.96862839601628   -0.18225980188115
N          -1.83382218857192   -6.64525124440272   -0.05498838110256
N          -3.06047050996916   -6.96785332922922   -0.21940253621840
C          -3.36597670874603   -8.27335637826949   -0.32533073785825
N          -2.64361006380919   -9.33550836540759   -0.58621349689426
C          -3.49793100400596  -10.37458008407854   -0.68660902517636
C          -4.78873598000021   -9.96915925969032   -0.48284260109454
N          -4.72278368437543   -8.61587300227260   -0.26149438731785
C          -5.72426528761670   -7.78659890883956   -0.01898165169647
N          -6.59326160349628   -7.06996832851040    0.18490080469531
H          -2.23239239117976   -0.11343299748365   -0.07517455584714
H          -0.86191270774724    2.07603665886914   -0.01735077634384
H           1.71315887553993    1.60103396867269    0.11934606573151
H           1.19824457671328   -3.36888564145388    0.31269352732606
H           0.51028233966203   -5.74380074306072    0.27145182175945
H          -3.54514784745716   -4.56424813863379   -0.34877336399296
H          -2.87418745479143   -2.19901319577992   -0.31347226605611
H          -3.13755601868723  -11.36079059625027   -0.90240794790194
H          -5.71809915376595  -10.50106803041486   -0.47526909567014
