28
         -52.437666936156          0.000730761673
C          -1.12562636271665   -0.05053117596637   -0.27701433467421
C          -0.28339616548658    1.02086167166459   -0.14675129802909
C           0.95629721229877    0.45476122193584    0.20710649457115
N           0.87200210364756   -0.85136528810929    0.28256441909971
N          -0.39548708503618   -1.16726840541251   -0.01071947571909
C          -0.79991091393326   -2.49725906015329   -0.01875093448464
C           0.15564328777235   -3.48734398425602    0.23039449306259
C          -0.20122745192701   -4.81374071388291    0.21433094774329
C          -1.52926648502889   -5.18880095937302   -0.03797513020993
C          -2.48529535139665   -4.18838104578093   -0.27895366192808
C          -2.12513397943734   -2.86192935410087   -0.27267257883912
N          -1.78226583594030   -6.53471252746173   -0.07363189752824
N          -3.00928471470168   -6.88273256822377   -0.13848251234538
C          -3.27934922235392   -8.19972295136640   -0.25079141230246
N          -2.51882550104409   -9.26160499191921   -0.45250187484332
C          -3.33601276424245  -10.32370384104320   -0.53011192653491
C          -4.64920340277710   -9.94393533873680   -0.37366333082717
N          -4.58774301940394   -8.60504986315310   -0.20734544419070
F          -5.67940301819623   -7.81232158434903   -0.00534887476463
H          -2.16217826042360   -0.08407294489936   -0.53952908003965
H          -0.51400322864203    2.05701426663843   -0.28324478049853
H           1.88596904788221    0.95027658848300    0.40360830980961
H           1.16964416169469   -3.17886818738180    0.42746403902077
H           0.52386044772619   -5.58976045767686    0.40066461041425
H          -3.50363155674025   -4.48434334471313   -0.47875346055387
H          -2.87512623261786   -2.11040717901849   -0.46368471115863
H          -2.94336077699490  -11.30693237075934   -0.69652898777247
H          -5.57253493198108  -10.48386561098438   -0.36861760647719
