28
         -47.809593231817          0.000699593409
C          -1.12959694263195   -0.08598253096309   -0.06435697502863
C          -0.37895342771873    1.10143418790238    0.00150653780036
C           0.95300021995277    0.87142171330467    0.14517286987968
S           1.31641530598461   -0.80256342758199    0.20737297708560
C          -0.36764617428777   -1.22333252458147    0.03172385430961
C          -0.78421517013409   -2.60433608248716    0.00097112046078
C           0.14253648582128   -3.63541071353859    0.20741527633858
C          -0.23882718164144   -4.95352371660461    0.16343740358683
C          -1.57825350879077   -5.29713159977078   -0.07163844375860
C          -2.51180839711000   -4.26769346028843   -0.27965484361157
C          -2.12018216616536   -2.95276080811234   -0.24780592435220
N          -1.86385520351525   -6.63210214132971   -0.16140485551018
N          -3.09593339468033   -6.96591313119136   -0.09443223304687
C          -3.40135813466048   -8.26927270066611   -0.27615608012984
N          -2.66008499449776   -9.31703610903479   -0.59888289989913
C          -3.49768901662222  -10.36057772664263   -0.66541404734158
C          -4.78755593193410   -9.96613518253197   -0.38053058013180
N          -4.71709658800136   -8.63659489297066   -0.13691059317569
H          -5.47113673507332   -8.01651994511723    0.10861913393332
H          -2.19828531154923   -0.09155155912215   -0.17116045119172
H          -0.81121106242725    2.08437602095166   -0.05605680826637
H           1.74955143352977    1.58507900565223    0.21885771609919
H           1.17523145539924   -3.38025408278952    0.39801844619686
H           0.47373527232101   -5.74763796896541    0.32104321748909
H          -3.53710118338093   -4.53771237053429   -0.48377795364458
H          -2.85090761169092   -2.17813691250035   -0.42240513216911
H          -3.14010737665937  -11.34020648107717   -0.91377058628866
H          -5.70478465983604  -10.51711485940915   -0.33913014563335
