35
         -60.640887042805          0.000773914278
C          -1.16620128012473   -0.12638554639321   -0.12409535775858
C          -0.44045419889233    1.07361866939916   -0.02318359024675
C           0.88395845601616    0.86701491793427    0.20405226024782
S           1.27033777138329   -0.79967507074086    0.30438653662481
C          -0.39254412026216   -1.25017539109461    0.02978328485834
C          -0.78511774921794   -2.63759850666667   -0.00860764847118
C           0.14708299397906   -3.65111781101632    0.25395565183200
C          -0.21346954054112   -4.97500965735092    0.21716692815166
C          -1.53635866635989   -5.34277345852563   -0.07078969065318
C          -2.47320569261266   -4.33133982141487   -0.34644596474391
C          -2.10240947121594   -3.01047598978146   -0.31658327449786
N          -1.79912920488987   -6.68349947157072   -0.12660651343805
N          -3.03211193200227   -7.02773590002436   -0.11611437115737
C          -3.31770302807429   -8.33008357495356   -0.29710603532825
N          -2.54719294296264   -9.32478498495184   -0.69970883332786
C          -3.33877927045983  -10.40107596409421   -0.80555367725531
C          -4.63196266432843  -10.08392510009466   -0.46359512878849
N          -4.63095667126431   -8.76175023865259   -0.13964332266373
C          -5.72245104374823   -8.02042259975909    0.26071419147253
C          -5.74526140222238   -6.78296316951847    0.83685682216297
C          -7.05836428530227   -6.33562232319132    1.09437106225904
C          -8.00895437898467   -7.22958872703097    0.72264659506350
S          -7.33061242225996   -8.65288387580371    0.03684869814139
H          -2.22658732503883   -0.15089349933508   -0.29821810914533
H          -0.88413447328249    2.04902867963389   -0.11632966595220
H           1.66227035031622    1.59455435539849    0.32122871665123
H           1.16665894476263   -3.37745592166941    0.48542173203649
H           0.50163365672377   -5.75623700049565    0.42072668610950
H          -3.48307008080787   -4.61849903739631   -0.60020671226739
H          -2.83483535152143   -2.24979729721461   -0.53921593174528
H          -2.94674301479492  -11.34735110435529   -1.12147743918129
H          -5.52254141600549  -10.67790666475350   -0.42443770973660
H          -4.85374948780129   -6.22772851169678    1.05972998162379
H          -7.28157706692828   -5.38537717331748    1.54492813562212
H          -9.07416399127389   -7.15129322950218    0.80864169350130
