35
         -61.592375703029          0.000697070566
C          -1.21808087251132   -0.06795938340256   -0.07950713737793
C          -0.38696652076143    1.01822823028955   -0.00875376766728
C           0.90348207616167    0.46844700757420    0.10681249517573
N           0.85793439770846   -0.84232576861638    0.10538744024470
N          -0.43359443835741   -1.17645480481365   -0.00685313747342
C          -0.80889596418767   -2.51568956073133   -0.03351481478673
C           0.19307159081366   -3.49198415968021   -0.02091021519409
C          -0.13408716799731   -4.82430520008404   -0.06049628090111
C          -1.47889873008182   -5.22693876577489   -0.07949109830835
C          -2.47858246831141   -4.23981329172404   -0.09427321721227
C          -2.14869052667087   -2.90444518722871   -0.08265659433716
N          -1.72675338654212   -6.56524252320037   -0.18281426355758
N          -2.86132376335105   -6.98704013172631    0.22822286982233
C          -3.17650745185765   -8.28045439603988    0.00862882788005
N          -2.56361932786647   -9.20100649738201   -0.71702617039131
C          -3.31792822263950  -10.30283840459867   -0.64059792581253
C          -4.42687816844069  -10.07922026116538    0.14747264141970
N          -4.34458805875916   -8.78875619707097    0.56170636824176
C          -5.23756086102677   -8.12145925490305    1.37723013827903
C          -6.43468926815400   -8.49661442488107    1.94399254326872
N          -6.93058913338423   -7.46472075515855    2.66654256809311
C          -6.07153435411372   -6.48917438957351    2.55107750239309
N          -5.01732140062486   -6.83297759745126    1.77684964699454
H          -4.19293888654528   -6.32159828224742    1.46855009443207
H          -2.28220337127692   -0.11527267057980   -0.18001328552178
H          -0.65719883841561    2.05350345973892   -0.03562601978708
H           1.84245954495453    0.97810780367128    0.19012965420033
H           1.22006996222165   -3.16619502398014    0.01136194338246
H           0.62856133430812   -5.58641125126913   -0.05456027126913
H          -3.51366528731615   -4.54360939194871   -0.15757033282502
H          -2.93614135994546   -2.16761164498158   -0.10942375765105
H          -3.03651241182185  -11.20184703105138   -1.15177741823052
H          -5.23477794247016  -10.72031587365885    0.43163523084127
H          -6.96126932686448   -9.42606726031679    1.87543129568610
H          -6.17390139587217   -5.52731711603366    3.01068444794889
