29
         -52.812564331724          0.000219829364
C          -1.17025895573807   -0.03542170994999   -0.00856418719017
N          -0.38244441489841    1.05964467246559   -0.01137521474691
C           0.84581792968468    0.61739643275320   -0.04648391533380
N           0.89438825839683   -0.73205806555050   -0.05706334599105
H           1.72108083197709   -1.30417246559476   -0.10084956329886
C          -0.40364636851999   -1.18802839607533   -0.03812418733517
C          -0.77823553414092   -2.57867760882210   -0.03814495776348
C           0.16628774087183   -3.59584818861427    0.16170886621550
C          -0.20960955375714   -4.91717625748957    0.15607384623337
C          -1.55031770038038   -5.27388668852600   -0.04998763687759
C          -2.50324298609876   -4.25710123729244   -0.24659163323906
C          -2.12013260835184   -2.94076359460979   -0.23898098141415
N          -1.81992006191237   -6.61454101728159   -0.05046598242817
N          -3.04733328952370   -6.94502913998550   -0.19315159815340
C          -3.34375827941032   -8.25291914013452   -0.29658615290808
N          -2.61450394634543   -9.30586447534691   -0.57651510498749
C          -3.45919955537744  -10.35399513164793   -0.66311435647780
C          -4.74989466632144   -9.96352938866711   -0.43095455899440
N          -4.69460768398377   -8.61048524929688   -0.20547294375395
C          -5.70145951464369   -7.79538230938020    0.06344304671492
N          -6.57365498568688   -7.08965985464053    0.28997270858274
H          -2.23584357075135    0.06397634951445    0.02977149080605
H           1.71897786743727    1.23858405692166   -0.06393030624580
H           1.20367398244168   -3.34896946035405    0.33676882455317
H           0.51055950159408   -5.70537290499238    0.31036762550514
H          -3.53352717661112   -4.53923471375883   -0.40231696432775
H          -2.85373735887431   -2.16606251419858   -0.39780672812412
H          -3.09269161339666  -11.33535422016416   -0.89022803959747
H          -5.67295628767929  -10.50587777928087   -0.40642804942221
