35
         -62.292359886652          0.000363740972
C          -1.20260527162612   -0.05843870651217   -0.29203134821045
C          -0.32209311265542    1.02685087648519   -0.10734093869109
C           0.86183843739759    0.48279265196556    0.29187173460292
O           0.77238185790916   -0.85067762511571    0.36461310398460
C          -0.48896473011624   -1.19677544994485    0.00989870929320
C          -0.86117981419374   -2.59234375710327    0.00289196555104
C           0.08324636234174   -3.57501079391497    0.32714972396304
C          -0.25677598262168   -4.90615113219079    0.31419931096754
C          -1.56278769740308   -5.30081086641727   -0.00919670469733
C          -2.51163605390508   -4.31581478857937   -0.33456493789222
C          -2.16370124746524   -2.98830774085655   -0.33066325805793
N          -1.80667490870252   -6.64909857683570   -0.03765685076642
N          -3.03459103763649   -6.99587918028649   -0.11312590142866
C          -3.31526432856244   -8.30282128810038   -0.26132109265143
N          -2.53790228512942   -9.32160670450855   -0.58087758129287
C          -3.33797337973682  -10.39351112227301   -0.68204507541707
C          -4.64180161973712  -10.05143756862351   -0.41866447797240
N          -4.63997777935248   -8.71244649155059   -0.15633994963291
C          -5.74346526857934   -7.95051379633128    0.17112996116886
C          -7.05671789661714   -8.31690110152575    0.31659227723616
C          -7.74671806818081   -7.12867509196380    0.65176653166790
C          -6.80935510913383   -6.14377768864232    0.68384698245902
O          -5.59177182681339   -6.63639718279129    0.39362080015297
H          -2.22361729269227   -0.00031752031464   -0.60777564240974
H          -0.53830380508200    2.06553199620135   -0.25140017171291
H           1.80477600166541    0.92635128105141    0.54437795019063
H           1.08679106733219   -3.27033022005808    0.58257924504631
H           0.46298846733779   -5.67098157637923    0.56041937721018
H          -3.51070930835430   -4.63457677246423   -0.59121760542476
H          -2.89741237590404   -2.23894862840204   -0.58531457169225
H          -2.94180962564699  -11.35545228020504   -0.94087741462269
H          -5.53554015296485  -10.63882783265981   -0.40204469626023
H          -7.47792819617382   -9.29355080996812    0.20234192446377
H          -8.79537685609147   -7.03062228388410    0.84169751948130
H          -6.87327716290523   -5.09516222730081    0.89316110139375
