28
         -45.387662090833          0.000339586053
C           1.58027517361045    0.19083943750407   -0.77842351765086
O           2.56524353751659   -0.06034548698253    0.19541861338395
C           3.09324210108976    0.98568872133772    0.87909974734025
C           2.72955897712418    2.32088040330467    0.70604825750470
C           3.34754307306807    3.30497451239918    1.44801668195001
C           4.32873188439771    2.98640335251907    2.39235426698363
C           4.68493719244184    1.63700347479273    2.56480759630829
C           4.08122286131170    0.65911625188581    1.81753698395295
N           4.91019518538731    4.04129745672045    3.04908894712660
N           5.66147968184052    3.74498057489444    4.04122074194984
C           6.31824883455092    4.74960297301156    4.65836991427902
N           6.46631036004334    6.03042287199832    4.34843770313387
C           7.26910911664502    6.54646416084522    5.28710555593434
C           7.62701824703256    5.57720485951633    6.20049140318419
N           7.02539822293812    4.43620798525170    5.79503737838793
C           7.08266807136968    3.14448460396088    6.41554026594011
H           1.32655553057423   -0.78149171562352   -1.19769779365286
H           1.95853091863725    0.84015539085523   -1.57406870025973
H           0.68464863454138    0.63916199675509   -0.33689513341463
H           1.97016667663705    2.59880782758930   -0.00802057393521
H           3.07753319251901    4.34156274988415    1.32109254498811
H           5.45115566234587    1.39345482481832    3.28481962349682
H           4.35069058913008   -0.37994650395022    1.92915513895720
H           7.55483937170775    7.57958178034332    5.26494136207086
H           8.24508194392233    5.62250950538933    7.07456708078322
H           7.70000632409871    3.19849891587536    7.31051918591915
H           7.50785243972292    2.41725091682951    5.72198850044062
H           6.07823619579471    2.81401815827605    6.68441822489857
