25
         -42.215060695873          0.000354539372
C           1.36230820184600    0.05199407613291    0.74878055908270
O           2.46419144796536   -0.01353296631111   -0.12524635182589
C           2.96516188480538    1.13715596091786   -0.63728780706326
C           2.47304204476320    2.41424625659694   -0.36845139024245
C           3.06147240969697    3.51544819069664   -0.95274330207955
C           4.16141840723001    3.37752138562217   -1.80585639162439
C           4.65055129287406    2.08603130164865   -2.07284341820322
C           4.05900120488364    0.98968681816695   -1.50157554506769
N           4.65782750477245    4.53642953683872   -2.34547846718423
N           5.75251250751305    4.43712280928322   -3.00033161012898
C           6.23337956233450    5.55823008708743   -3.58338824302003
N           5.73395853250038    6.77679651659813   -3.70840744170826
C           6.63421682174999    7.47849068952132   -4.41227666828746
C           7.71821188245548    6.69214597012218   -4.73401124737977
N           7.45312527679398    5.47270409351309   -4.20716061209397
H           8.02999808280490    4.64880445634457   -4.24511041121666
H           1.14111961529548   -0.97874611161729    1.02086482770285
H           0.48796831926674    0.49252053625221    0.26004573060186
H           1.60057498157376    0.62141444435842    1.65251233309388
H           1.63177559040916    2.55468215085488    0.29208313146858
H           2.69068534811939    4.50880690884478   -0.75470208709222
H           5.49021091867354    1.98015058777216   -2.74245556631431
H           4.41604767074738   -0.00912183050809   -1.70033505241032
H           6.46230041991726    8.50819717573091   -4.65570869165512
H           8.61602007100718    6.90829095553167   -5.27608627735153
