32
         -55.046296936791          0.000948398628
C           2.23459712339175    0.37723653795347    1.39139548117119
O           2.42449625873837    0.32112006350272   -0.00260243563447
C           2.95493470117405    1.39390942195628   -0.63703652425136
C           3.32685699074479    2.58707400553923   -0.01664023353239
C           3.85547381524750    3.61617587644061   -0.76490616295636
C           4.04464319281024    3.48085603122200   -2.14504424576504
C           3.66164271593055    2.27663753858586   -2.76418172518943
C           3.12369561060143    1.25744116046473   -2.02213003433183
N           4.55495746611461    4.57303868415704   -2.79344280416095
N           4.93050475100187    4.39932922381180   -4.00400150571962
C           5.31013974429272    5.48680481573473   -4.70152240634077
N           5.09564112946308    6.76737938709058   -4.46014278148959
C           5.56409133397253    7.43870087389418   -5.52368951670323
C           6.08659337609806    6.57037474278941   -6.45012071078364
N           5.92471007642080    5.31786986286160   -5.93743038077113
C           6.31206736835729    4.13693234259697   -6.53301974732150
C           6.40510137347664    2.89463382946158   -5.97568841084974
C           6.82325001541729    1.91837748688620   -6.90466889848064
C           7.05021297933983    2.42366395469172   -8.14273088679019
S           6.75282834123143    4.11608506884974   -8.21794416115933
H           1.81542320797995   -0.58818555674515    1.66962172138116
H           1.53360435888928    1.16948804917562    1.67042828765792
H           3.18160153120263    0.52646202419363    1.91889276878259
H           3.20144806504160    2.71929270095022    1.04654434550344
H           4.14616957730037    4.54476781567889   -0.29947788063111
H           3.78511662212358    2.17948623824701   -3.83219405854982
H           2.81677516911401    0.32948391163503   -2.47962081108283
H           5.50079356119299    8.50776185377972   -5.57336807126281
H           6.54816564387694    6.73928358856388   -7.40196398693648
H           6.17857110345592    2.70240810207936   -4.94442958075205
H           6.95481142442715    0.88130855151847   -6.65467728814110
H           7.37916137157101    1.91291181243171   -9.02520735490818
