28
         -48.635048964024          0.000462715964
H           1.04356376519669   -0.22812336588718   -0.03561606544277
C           2.11972670385043   -0.19484142886725   -0.12295192988781
C           2.81854328750081    0.90958924261129    0.34222955918907
C           4.19284464069232    0.95808727174199    0.22818320720139
C           4.88600532292685   -0.11129992693674   -0.35011362203683
C           4.17195529853158   -1.22366232124499   -0.81934431185229
C           2.79938605693141   -1.25763905320864   -0.70377061877736
N           6.25455645075833    0.02993185544381   -0.43473370028312
N           6.89314544556644   -0.99790448226902   -0.83477084317241
C           8.21927153605415   -0.89624143392250   -1.03351502664189
N           8.98709898814794    0.16534209105788   -1.19946616868616
C          10.21338252885677   -0.29456678554772   -1.49088604308085
C          10.22565836899476   -1.66789329203393   -1.50419985798961
N           8.95040358903946   -2.06331954118777   -1.22388062157838
C           8.50275312309781   -3.36584055703810   -1.13614778951837
C           9.14671166421152   -4.54303896372124   -1.41742395937617
C           8.20102461210620   -5.56270616549280   -1.15931732032052
C           7.06880514576792   -4.93260082441675   -0.74536276776834
O           7.24625230150757   -3.59928550824310   -0.72675177554684
H           2.28452595343081    1.73376835932191    0.79206779211022
H           4.75925647855534    1.80550116591447    0.58134961891948
H           4.72277729869548   -2.03720184776382   -1.26672618505088
H           2.24755245933453   -2.11315313774082   -1.06670221974832
H          11.02477001881701    0.38002084265812   -1.68009585145565
H          11.01683706736621   -2.36593289059027   -1.68018909260976
H          10.15068261265037   -4.67028053753057   -1.76458605376430
H           8.35160257245272   -6.61648408319283   -1.27005342768729
H           6.10867670895730   -5.30091468191291   -0.44501492514529
