24
         -38.152484449289          0.000855914389
H           1.20028165321774   -0.05730784180993    0.32882658268869
C           2.27235900500415   -0.05692145404556    0.19725600323280
C           3.05139428869061    0.88690006484834    0.85180536904768
C           4.41906315722242    0.90088296051026    0.67634385966987
C           5.03127694710387   -0.05484400167009   -0.14388676329892
C           4.23629487810536   -1.00308307555619   -0.80348788264843
C           2.86821533231127   -0.99473226535184   -0.63408207357925
N           6.39099642664456    0.05673232637607   -0.30890076389961
N           7.00470111535859   -0.98156171767828   -0.72195011409342
C           8.32612381145134   -0.87439949450633   -0.97851976737867
N           9.13566708751845    0.17572380652458   -1.00434375813198
C          10.33888468551426   -0.29457206113107   -1.35058128121417
C          10.28382279370155   -1.66013670235521   -1.54380153329166
N           9.00363746777358   -2.02343054326777   -1.31097420440754
C           8.44032655328979   -3.34090519407885   -1.37507419025870
H           2.58312994935529    1.61788397792129    1.49476128085801
H           5.04409585823629    1.62561969102940    1.17413775885555
H           4.71781214511030   -1.71760185686794   -1.45447088145695
H           2.25689095677544   -1.72120922203229   -1.15046795425303
H          11.18292563452473    0.35925356913894   -1.44730448375609
H          11.04120458055144   -2.36550113106698   -1.82111204641596
H           9.21311980114758   -4.05246357920229   -1.66057875573901
H           7.63294957548423   -3.36519316396873   -2.10843489566893
H           8.02845629590722   -3.61958309175956   -0.40390950486026
