21
         -39.141468179750          0.000654226023
H           0.97628233546504   -0.03708782518095    0.06049376388472
C           2.05370570251823   -0.01371795047898   -0.01098693414956
C           2.71505268538319    1.20284038461045   -0.10461835471606
C           4.09009246476139    1.23717380087563   -0.20626636051962
C           4.82302350364769    0.04357085125488   -0.19539869921904
C           4.14697993624472   -1.18230855054719   -0.10245745065553
C           2.77180851430151   -1.20237016532943   -0.01513147079849
N           6.18472271741249    0.17119070269798   -0.33003961324385
N           6.88163892101120   -0.86288630949761   -0.07085699190807
C           8.21435096385328   -0.78961938090183   -0.27429629971060
N           8.98120780630905    0.09223300477512   -0.89085697009831
C          10.23827597433542   -0.37675475955504   -0.84430032321310
C          10.28654078926249   -1.58267298389393   -0.18405966864644
N           9.00169691852285   -1.82558324705676    0.15388293229821
F           8.59337576601705   -2.92431680683722    0.85115662075882
H           2.15080199319614    2.12375902035582   -0.10315383009012
H           4.62858824893954    2.16885264277788   -0.28045533558687
H           4.72427337336454   -2.09440820536568   -0.11370812008908
H           2.24953122573036   -2.14586984282504    0.05054801563779
H          11.04487851579421    0.17088055089571   -1.28925779848806
H          11.08324164392965   -2.25362493077386    0.05900288855336
