23
         -38.387670455928          0.000700677511
H           1.20118894262564   -0.04448213124424    0.15729017430431
C           2.27452583955703   -0.03373822442011    0.03804254207463
C           3.03396481417671    0.94059587185236    0.67042839845309
C           4.40300445120482    0.96800739330171    0.50893062180017
C           5.03763346631220   -0.00287056049062   -0.27560893383712
C           4.26168983359546   -0.98187058855397   -0.91267775437788
C           2.89207659756977   -0.98846831666038   -0.75707464698047
N           6.39620408817081    0.12748897119486   -0.43391782530563
N           7.03401945684109   -0.91255534666068   -0.80770962805921
C           8.34811212561030   -0.80517174417751   -1.08024751098932
N           9.18479167363319    0.22194030024511   -1.17177143322269
C          10.35864818411571   -0.29027371088322   -1.54395780190128
C          10.27601578851654   -1.66582936196045   -1.68286978853152
N           8.99854100463896   -1.97947729611266   -1.39278598887331
N           8.43046340858017   -3.23730821431923   -1.30725167344781
H           2.54923660029004    1.68523677638381    1.28462947337798
H           5.01262731627691    1.71637829017476    0.99059005965244
H           4.75464618178653   -1.70815723478215   -1.54231752253334
H           2.29673685200026   -1.73916446755890   -1.25720973331421
H          11.21330658483921    0.33800837044913   -1.69812705619493
H          11.00240733105670   -2.40075249522292   -1.96187222871191
H           8.51110270993509   -3.74172432533039   -2.18778497918164
H           7.45049674866701   -3.09871195522452   -1.05966676420045
