26
         -41.593689479148          0.000776493775
N           1.13732809402838   -0.10756658767496    0.16656661926126
C           2.49896465643708   -0.09097465419372    0.02246842292635
C           3.16864379835837    1.09918855020618   -0.28789897562856
C           4.53803078430884    1.12585264748447   -0.38084987145053
C           5.29474911555989   -0.03512307257151   -0.16168538021544
C           4.61923307966421   -1.22769687730781    0.15294035996650
C           3.25088381150677   -1.25362988332163    0.24025998634023
N           6.65024561430881    0.09619742334889   -0.29682340535545
N           7.35465392070622   -0.94143011275283   -0.03076058432529
C           8.69182765381538   -0.84870870103891   -0.19918131255279
N           9.45176503212647    0.11223045952015   -0.70377418107423
C          10.70890203842667   -0.35049202114328   -0.66264029525848
C          10.73863159416577   -1.61741809258456   -0.12375614365308
N           9.45353681556339   -1.93375392499470    0.16516879662045
C           8.96795357942257   -3.14419505184178    0.75985618836287
H           0.61559095711841    0.66638803748052   -0.20802379698545
H           0.67347937397629   -0.99995272183197    0.16255617465497
H           2.59103418199022    1.99723143268055   -0.45597502330699
H           5.06298605313378    2.03618834483153   -0.62355709971447
H           5.20021545625543   -2.12302847194176    0.31437962949778
H           2.73504172282071   -2.17423091105588    0.47745949261066
H          11.52815597402254    0.24135430229948   -1.02077040731327
H          11.55108806113526   -2.29011909621843    0.06430330597103
H           9.32107552855050   -4.01198132599390    0.19847370305573
H           7.87962725756942   -3.10821902892374    0.74026325416978
H           9.30805584502945   -3.22813066246101    1.79535054339712
