28
         -48.289648749584          0.000507796079
C          -1.15194400565055   -0.02166754076121   -0.00070312652889
N          -0.35581446403355    1.07002454275301    0.00503427760506
C           0.86859573686667    0.61939234563026   -0.02746130238815
N           0.90702075941444   -0.73130740428844   -0.04357272275680
H           1.72705074487098   -1.31269418834487   -0.09112065978032
C          -0.39416936225827   -1.17721379304602   -0.03203120111376
C          -0.77507489301631   -2.56871155098971   -0.03953868800488
C           0.15258067437072   -3.58640352169026    0.21975224333082
C          -0.22270320282930   -4.90822914013233    0.19209455135706
C          -1.55115552938845   -5.26513852672220   -0.07654334549174
C          -2.48613288910908   -4.24701700198614   -0.33025362911663
C          -2.10126100762894   -2.92965554004597   -0.31551283223563
N          -1.82197215493834   -6.60502168076715   -0.14787441694013
N          -3.05168411881762   -6.94993445967064   -0.10204638243667
C          -3.33903636660527   -8.25937379682062   -0.27024105252744
N          -2.58277551916896   -9.29733679088789   -0.59002311774892
C          -3.40506983981803  -10.35339375383584   -0.65045048568260
C          -4.69990341409443   -9.97677870943456   -0.36375498047677
N          -4.64892294044262   -8.64517803653775   -0.12728635459247
H          -5.41113784216376   -8.03458913893355    0.11687070612336
H          -2.21712760769868    0.08377002584149    0.03503257846286
H           1.74694768141604    1.23345091421235   -0.03887792983059
H           1.17843380449867   -3.33997213256830    0.45517440294584
H           0.48818008815786   -5.69467278706164    0.39194227313066
H          -3.50348805012703   -4.52821215742141   -0.55718068240988
H          -2.82179314637138   -2.15520640101431   -0.52909833133720
H          -3.03388601917768  -11.32842751755573   -0.89690227489561
H          -5.60811711625714  -10.54195225792079   -0.31589751666051
