32
         -55.870276075205          0.000996179115
C           1.38324201928832   -0.44557807545006    0.32080500649255
O           2.59735045672075    0.09313104552554   -0.14653895099847
C           3.10462087596360   -0.34932037984320   -1.32238335179331
C           4.31200108257821    0.23828432242672   -1.72195180096425
C           4.90938271383208   -0.12792305072466   -2.90147464882562
C           4.32500454019994   -1.10709059390584   -3.71928596921119
C           3.11858693740255   -1.69410240082311   -3.31259311697638
C           2.51349483992145   -1.32022543494234   -2.13353188949735
N           4.97850784492336   -1.39168839885210   -4.89129234924328
N           4.53905114627061   -2.38534826829600   -5.55876689784866
C           5.04739521912247   -2.62271365696639   -6.78108653833866
N           5.60336338033399   -1.79797934677909   -7.64914911281845
C           5.77324516453255   -2.49942246987539   -8.78347609010560
C           5.32603572112185   -3.78663581372872   -8.62996709449480
N           4.84476582120355   -3.87240855347478   -7.35342947204044
C           4.30483453445602   -4.99222216634338   -6.75703013658579
C           3.89811172239218   -6.18035037310134   -7.30656077095328
C           3.42026553428966   -6.95399933107134   -6.22266585457524
C           3.57262568161555   -6.18408728690252   -5.11155652063554
O           4.11254317085433   -4.99241817140631   -5.42818691932516
H           1.18351838493898    0.05691553553490    1.26594214358262
H           1.46196788921148   -1.52347774400667    0.49409520834450
H           0.56180966071526   -0.24661708335745   -0.37470566962871
H           4.74948468889673    0.98526948281858   -1.07832380709827
H           5.83695514754573    0.32013055317113   -3.21996722805859
H           2.67197755765384   -2.44341292797248   -3.94871631871040
H           1.58113710793070   -1.78377899975846   -1.84908918195013
H           6.20416898202380   -2.04333045741751   -9.65269979530945
H           5.32026864047223   -4.62090881423474   -9.29947569379888
H           3.92549824394079   -6.46334498654048   -8.33817851688188
H           3.01970227233226   -7.94541468517429   -6.27320079822429
H           3.34851301731490   -6.35884146852901   -4.07874786352852
