35
         -61.606548451351          0.000760725903
C          -1.21725118680494   -0.06674444831270    0.06240712782021
N          -0.45635603768214    1.04800610264871    0.03342770910082
C           0.77899435522254    0.63508591463185   -0.05314299169061
N           0.85805875548254   -0.71327330939278   -0.07843629860956
H           1.69664358670300   -1.26457826302487   -0.15041137457419
C          -0.42660696276767   -1.20028306010556   -0.00647114412246
C          -0.76902655336654   -2.60028336116324   -0.01076610085826
C           0.21139154240562   -3.60341524408535   -0.00904133091064
C          -0.13348568891243   -4.93207933693020   -0.04334855603178
C          -1.48218170122606   -5.31938319694777   -0.04981291776068
C          -2.46896557467160   -4.31620612787291   -0.04407551747051
C          -2.11599456941670   -2.99045664418795   -0.03420806505106
N          -1.74368323502857   -6.65168134797956   -0.16960038167893
N          -2.89250315315530   -7.06429982087893    0.21401957617577
C          -3.22639441147080   -8.34508983254826   -0.04383890719270
N          -2.62388570576482   -9.25364794102346   -0.79346607515025
C          -3.40266448106782  -10.34095208740854   -0.76372023216480
C          -4.51593358588434  -10.12081589734860    0.01891648418383
N          -4.41150691403364   -8.84719898177902    0.47840751857854
C          -5.29871683465045   -8.18929644311747    1.30743326296000
C          -6.49442705879373   -8.56888440698605    1.87425420408156
N          -6.98325959296024   -7.54644482539460    2.61459466327601
C          -6.12111058450196   -6.57215484380144    2.50994586952669
N          -5.07225187525255   -6.90789901741034    1.72551347361373
H          -4.24330480659210   -6.39769755489729    1.42661604692660
H          -2.28302983058375    0.00942510965518    0.13513813941852
H           1.63677240861915    1.27584017089961   -0.09924602240480
H           1.25929225698402   -3.34146293277352    0.01491204314464
H           0.61944663476183   -5.70419090612617   -0.04566575548394
H          -3.50886070739972   -4.60667103159923   -0.09375868761546
H          -2.88309284622413   -2.23260064583814   -0.05132800825907
H          -3.13490220484667  -11.22736984432950   -1.30354709631532
H          -5.34163579390181  -10.75313592859588    0.26992520544829
H          -7.02365172367235   -9.49593126904529    1.79440045935239
H          -6.21882591954479   -5.61696874693047    2.98419367973674
