30
         -51.217542589536          0.000887459759
C          -1.18318042046421   -0.12005975950324   -0.06192298733608
C          -0.44673118769081    1.07383808043891    0.03996349502442
C           0.88333170764061    0.85517475650907    0.21360155101401
S           1.26308290188804   -0.81579711089295    0.26028184851888
C          -0.41199702822663   -1.25097277909104    0.03731123201959
C          -0.81356367873135   -2.63560826399783   -0.01933588016830
C           0.11180137341604   -3.65961460736529    0.22492093329602
C          -0.25733572585839   -4.98038063473397    0.16675618045135
C          -1.58334346873168   -5.33606499619630   -0.12148719531643
C          -2.51279212234053   -4.31337034994585   -0.37605812093163
C          -2.13325589587159   -2.99505576267715   -0.32928804454524
N          -1.85207641949725   -6.67408425607727   -0.20834075192220
N          -3.08255254288238   -7.02349219323345   -0.16547609268909
C          -3.38894572236720   -8.32063890119932   -0.34922172893411
N          -2.67725031444881   -9.39184894586361   -0.68154145660265
C          -3.54637509843105  -10.40009532727736   -0.76725877594050
C          -4.83096397246666   -9.97193610656294   -0.47650129340113
N          -4.71975693463181   -8.65415164881281   -0.21865496034530
N          -5.70987169746963   -7.78457727368796    0.20169859486792
H          -2.24963124114706   -0.13501419749955   -0.19512563467509
H          -0.88740641128375    2.05350487075451   -0.01397193612544
H           1.66993359991080    1.57584697646824    0.31795532266803
H           1.13351351546957   -3.39636152987198    0.45885022683069
H           0.45349968166083   -5.76916740007226    0.35600921375172
H          -3.52656261371788   -4.58579507106631   -0.63072957453978
H          -2.86108787399851   -2.22660155903241   -0.54062515091340
H          -3.22390896125420  -11.38776406583318   -1.03099372173529
H          -5.76707744068747  -10.48991939516023   -0.44499455045908
H          -6.47074688487195   -7.73502263169689   -0.47193828730960
H          -5.26842912291503   -6.87205991681996    0.31243754544788
