29
         -52.798570134385          0.000705715516
C          -1.15883155571936   -0.05177092897235   -0.26178952554853
C          -0.32011387488823    1.02343183803976   -0.14838241962684
C           0.93225970175063    0.46328180419754    0.17249561962943
N           0.85783075713882   -0.84294040355555    0.24626106475850
N          -0.41534202233251   -1.16594146867223   -0.01686204025274
C          -0.81243543569773   -2.49643013752337   -0.01737252212564
C           0.14992139764761   -3.48138043217578    0.22954886795932
C          -0.20280003169234   -4.80863324712641    0.23002083595066
C          -1.53118960615622   -5.19030938418397   -0.01357807215000
C          -2.49380712082952   -4.19497216870167   -0.25600392468821
C          -2.13921027423755   -2.86800650005065   -0.25802385511719
N          -1.78386853153051   -6.53571463224637   -0.00950558953430
N          -3.00296266263341   -6.88163130440155   -0.17048268334388
C          -3.28805299880898   -8.19178246024075   -0.27861107299678
N          -2.55137438496502   -9.23850731613284   -0.56113529002620
C          -3.38938928361952  -10.29100745138303   -0.65800036357229
C          -4.68368568558260   -9.90954763164021   -0.42952559634269
N          -4.63754427793414   -8.55762825359417   -0.19645815598615
C          -5.64910206976432   -7.74592504459693    0.06422153060895
N          -6.52352370747017   -7.04004903789628    0.28192500500246
H          -2.20184112399469   -0.08994669429942   -0.49629417059102
H          -0.55986100074272    2.05873355267262   -0.27522629234632
H           1.86312018692956    0.96463298903179    0.34742995064866
H           1.16449171941728   -3.16708049601937    0.41480506089093
H           0.52607708514862   -5.58124134815997    0.41587413704423
H          -3.51440841058803   -4.49581325660953   -0.43775649787699
H          -2.89399414048655   -2.12063735955226   -0.44493989820792
H          -3.01654357813807  -11.26892000845142   -0.88958274679949
H          -5.60315907022275  -10.45827321775009   -0.41169135535847
