35
         -61.120932572857          0.000805905591
C          -1.20380356724390   -0.06995608107537   -0.12936074370810
N          -0.43132570586427    1.03695436543644   -0.07954274563813
C           0.79825610705121    0.60984781573902    0.01743358109272
N           0.86143586889048   -0.73966238347228    0.04472326131772
H           1.69408918928362   -1.30190237154192    0.09836488438178
C          -0.42699000974533   -1.21156866897087   -0.05295480455944
C          -0.78371934848452   -2.60882879415753   -0.05761874255665
C           0.15249386010305   -3.61045946904681    0.23327194078475
C          -0.20332682911098   -4.93760215136572    0.21412018440877
C          -1.51990625391687   -5.31789760732518   -0.08087422108986
C          -2.46198341471327   -4.31655336280549   -0.37606455879162
C          -2.09682973824855   -2.99393950554523   -0.36524113500433
N          -1.77092038218048   -6.66213626985661   -0.12279565444859
N          -3.00093983057862   -7.01543943567138   -0.11699587353064
C          -3.27741653528591   -8.32038742615133   -0.29118721005841
N          -2.50150506469469   -9.30873486229633   -0.69983888201016
C          -3.28574158996356  -10.39064598947969   -0.80297383282593
C          -4.57907612821334  -10.08390402593747   -0.45206621102430
N          -4.58644951126262   -8.76236917485118   -0.12600308482595
C          -5.67980250182985   -8.02997276109748    0.28591554965361
C          -5.70734603761962   -6.78977722959135    0.85560949464511
C          -7.02115163386143   -6.35438438153288    1.12992683471990
C          -7.96743434328132   -7.26101126482916    0.77893805661959
S          -7.28430646324135   -8.68053521472824    0.09013869620783
H          -2.26877447374441    0.01667688728025   -0.20231164887142
H           1.66294358199909    1.24063510044057    0.07267597096161
H           1.17062253578639   -3.34838630832922    0.48408848283540
H           0.51351274876496   -5.71172394424311    0.43887910518947
H          -3.46840316908084   -4.61381323943064   -0.63078341480208
H          -2.82374864653862   -2.23357406536506   -0.60516842713872
H          -2.88879491018301  -11.33318791424323   -1.12399346565090
H          -5.46457067612174  -10.68508372854363   -0.40806411083836
H          -4.81910764754574   -6.22326383425828    1.06121133450921
H          -7.24733386783876   -5.40361044817603    1.57769169482945
H          -9.03191561148422   -7.19360225497796    0.88114969521656
