28
         -51.971768858758          0.000279464796
C          -1.13190367999505   -0.08691763113717   -0.05170127858160
C          -0.38029792854798    1.09986018859087   -0.00403915060824
C           0.95341969200078    0.86974842046262    0.12801177101335
S           1.31788165872726   -0.80219482872499    0.19983566022566
C          -0.36818798604686   -1.22432667476402    0.04533494393427
C          -0.78480441954837   -2.60467794948643    0.02346632056420
C           0.15318399984208   -3.63589306014021    0.17179510678935
C          -0.22910242556162   -4.95391102155836    0.13216106581062
C          -1.57745554214048   -5.29536754772025   -0.04950364388440
C          -2.52459523847111   -4.26603211753849   -0.19195701436800
C          -2.13331570474909   -2.95180575967820   -0.15739971903004
N          -1.85886819592621   -6.63330044908526   -0.11278687860529
N          -3.09676008942571   -6.95188141229465   -0.15831812580361
C          -3.39844658211367   -8.26024386236056   -0.28330860503275
N          -2.66315350438355   -9.34270115776185   -0.46952623017091
C          -3.50675323842041  -10.38318015044494   -0.55814174629169
C          -4.81163418297146   -9.96865025318273   -0.42616751307593
N          -4.71726812682135   -8.63152165061108   -0.25966236276554
F          -5.79205019987836   -7.80988230581441   -0.08208420881533
H          -2.20188995920618   -0.09297167277737   -0.15193535146004
H          -0.81178054722040    2.08287118387834   -0.06711070325366
H           1.75010607046280    1.58437883371008    0.18757058180176
H           1.19350950073929   -3.38093217781854    0.31479332193902
H           0.48992300493755   -5.75010224993647    0.24292434507578
H          -3.55963121129721   -4.53564481492859   -0.33778903350884
H          -2.87355028048133   -2.17578150322313   -0.27525510086319
H          -3.13744948108450  -11.37714110365401   -0.71382263614246
H          -5.74897540241894  -10.48353727200033   -0.43743381489245
