32
         -55.531703271015          0.000580076804
C           2.17960561593568   -0.34738272497662   -0.92683452911093
O           2.72996893503169    0.16988917874442    0.26193650015398
C           3.27824106696044   -0.68193282812706    1.15946037847558
C           3.83047788564422   -0.08749371851051    2.30289682577845
C           4.43481442396334   -0.85274988581427    3.26556023859943
C           4.48044293992332   -2.25182125966114    3.14051085696917
C           3.92053678425367   -2.84024667455988    1.99673198103948
C           3.33931288753458   -2.06833387933165    1.01446086782122
N           5.15506194384300   -2.93009349509207    4.11426043933642
N           4.91840623965839   -4.18239575022504    4.23347402611483
C           5.67706863128634   -4.88480267420298    5.10335904410847
N           6.77750469649343   -4.54030612453065    5.74937319962323
C           7.16496664894972   -5.62333825562905    6.43511900006314
C           6.29654560135790   -6.67052445320423    6.22088804296822
N           5.34626426159340   -6.20686729625224    5.36680645207640
C           4.25987951755751   -6.90490933181739    4.87762681759344
C           3.83323572418294   -8.20185341420438    5.05136351747044
N           2.69465128944151   -8.39671207867753    4.34457077595967
C           2.42829379678717   -7.26189152791613    3.75792898227732
N           3.34875772692966   -6.31454311302708    4.04802724163510
H           3.45891064511890   -5.34329932316236    3.76086150178301
H           1.81475341847897    0.51571953020014   -1.48100988286253
H           1.34477930127731   -1.02492696993499   -0.72233482084227
H           2.93473260789720   -0.86762708989310   -1.52439293948164
H           3.77576664777241    0.98583792319835    2.39208046494959
H           4.86926968155668   -0.40461725969053    4.14451863298507
H           3.99021712749595   -3.91102021499398    1.86852528422644
H           2.94089376539958   -2.55030260006622    0.13515177659979
H           8.04645865305299   -5.60462267561868    7.04438128330589
H           6.28548337234782   -7.67149413002033    6.59819703156580
H           4.26822542063233   -8.99189227161779    5.62784959339749
H           1.58447274164101   -7.08742561138696    3.12212141541918
