31
         -51.809722918484          0.000797511909
C          -1.15683809404494   -0.02487578013730   -0.27914706984373
C          -0.27481964136680    1.04791782485209   -0.03520694133413
C           0.89266702836626    0.48348300190438    0.38232130570334
O           0.79194599961262   -0.85116604309460    0.41226977545081
C          -0.46052420823895   -1.17676315396240    0.00929167463678
C          -0.84185116203073   -2.56924927405882   -0.04260649786451
C           0.08269281066532   -3.56502141981848    0.29889500144044
C          -0.26532723760595   -4.89268003401077    0.25203465964338
C          -1.56441598605835   -5.27401818996069   -0.11423058702356
C          -2.49017388808241   -4.27655015697341   -0.46417317656282
C          -2.13123790482535   -2.95138254577629   -0.43401087155198
N          -1.81413663559655   -6.61755824635599   -0.18178811736909
N          -3.03744723345731   -6.98436246244994   -0.15749719542091
C          -3.30232600858954   -8.29787609750409   -0.32157058945196
N          -2.52208418675612   -9.31905057875984   -0.64933946375571
C          -3.32012863197239  -10.39084286185218   -0.70218289339374
C          -4.62027403753569  -10.03771161271460   -0.40200697044040
N          -4.60580528409607   -8.70753647513600   -0.16628098208796
C          -5.71003309093573   -7.86683732266691    0.19546635211958
H          -2.16776973260729    0.05040592734815   -0.62250865811770
H          -0.47962069136002    2.09219781573940   -0.15307711711805
H           1.83081464374196    0.91126569275421    0.67636547135079
H           1.07899186213728   -3.27349581338128    0.59462315222308
H           0.44010107744952   -5.66553396866479    0.51396694997945
H          -3.48024942543163   -4.57821738686608   -0.77222246633882
H          -2.84909205837149   -2.19450629782949   -0.71092790290742
H          -2.93288154369793  -11.35865647309566   -0.95232526981234
H          -5.51571163926890  -10.62328341207669   -0.34475009243853
H          -6.62818883411757   -8.45153687957657    0.19134558116884
H          -5.79620409692056   -7.04408014340249   -0.51530723274683
H          -5.55150216900496   -7.44451763247297    1.18914017186365
