35
         -61.954074033001          0.000376644028
C          -1.24085204890428   -0.03376038737910   -0.02926009485452
C          -0.34656546909006    1.05450265114507    0.02225148958703
C           0.90076816990262    0.50966689678634    0.09341663735113
O           0.83741094480165   -0.82708482732414    0.08876993379009
C          -0.47056452316729   -1.17474288499279    0.01458686619596
C          -0.82576674372214   -2.57362951670350   -0.00393445988254
C           0.17373699544578   -3.55602831608695    0.04030178249108
C          -0.14855971398309   -4.88951648728864    0.00665123496408
C          -1.49199163661265   -5.29537929585797   -0.04062859736944
C          -2.49500864001221   -4.30960440725881   -0.08786722858726
C          -2.16502407050682   -2.97711446772339   -0.07924233074185
N          -1.73217594780626   -6.63334039275008   -0.14010621131471
N          -2.88043253650357   -7.05696557748042    0.23195290645202
C          -3.18479018603063   -8.35129057229375    0.00289681398445
N          -2.55045559040260   -9.26832565788395   -0.70853756366691
C          -3.30552714842318  -10.37174129004013   -0.65719372661365
C          -4.43605750899020  -10.15262552217236    0.10021993547558
N          -4.36720574858084   -8.86302014021006    0.52104355181743
C          -5.28280145251728   -8.20007261693755    1.31450990438643
C          -6.48098309283360   -8.58789416395994    1.87051710962498
N          -7.00403805146218   -7.55455843045150    2.57174123176723
C          -6.15991331639045   -6.56614736948133    2.45370959864985
N          -5.08993256602335   -6.90262003659678    1.69837048052532
H          -4.26551819274508   -6.38499579486286    1.39923386226387
H          -2.30782589069958    0.02436022125539   -0.09170081237359
H          -0.59543613076422    2.09561913914553    0.00823800217650
H           1.87464569295546    0.95482112366749    0.14902385578450
H           1.20639251449619   -3.24662683928970    0.09170240437717
H           0.61439021739489   -5.65124895902117    0.03884740760305
H          -3.52690363723148   -4.61957196946306   -0.17456614792746
H          -2.94387577323442   -2.23229106762834   -0.13245932805528
H          -3.00896663924362  -11.26818455070326   -1.16437850861012
H          -5.25134865361944  -10.79531080415815    0.35882887403110
H          -6.99007914352876   -9.52754014405265    1.80860821480345
H          -6.28566448196510   -5.59973754194751    2.89769291189572
