30
         -51.252121968630          0.000480391182
N           1.14013938361344    0.12956901836876    0.22178959629204
C           2.50084019897259    0.11228789807952    0.09590964230866
C           3.30059726425508    0.94439055765747    0.89110926262133
C           4.66831173002012    0.89511954816443    0.79649526370861
C           5.29404355744785    0.00314460059032   -0.08905119368988
C           4.48861587922995   -0.83195810295005   -0.88584695234031
C           3.12190542146044   -0.77473554214029   -0.79531044891748
N           6.65796688240056    0.05322830421517   -0.13158885313068
N           7.24591794859157   -0.85689560273831   -0.81507833462615
C           8.57482305861454   -0.74866737534642   -0.99851910737431
N           9.35816827256446    0.30970801806066   -0.90588083618778
C          10.57025804535721   -0.07532689067043   -1.34135005206891
C          10.55406575611731   -1.39592643085139   -1.71012936999827
N           9.27915911686901   -1.83740787795606   -1.50187687171163
C           8.80778935622636   -3.11109181440115   -1.72820200516338
C           7.63267607444077   -3.66814486363995   -1.31341083518375
C           7.48300094051565   -4.99995767474657   -1.75563501064049
C           8.53756352296177   -5.44122061258458   -2.48536992421463
S           9.75279275272944   -4.23605595394900   -2.66504663316188
H           0.71679703223007    0.90707300426178    0.69886911047550
H           0.58957417448704   -0.31262541117138   -0.49404493630363
H           2.82370073182246    1.62999935710813    1.57708580882375
H           5.29286357661941    1.53500083594096    1.39946561838200
H           4.97031895781436   -1.50351469068418   -1.58072632598646
H           2.50538084368037   -1.41108197989391   -1.41523892844307
H          11.38989307327290    0.61493897078025   -1.37103972591075
H          11.32170888835734   -2.03937463476700   -2.08990971102484
H           6.91404010151538   -3.13565224630638   -0.71982499858559
H           6.62300919099351   -5.60461035271090   -1.52988374834300
H           8.68974826681848   -6.40323205571964   -2.93185949960447
