29
         -53.160142170343          0.000616282670
C          -1.15940122338043   -0.00993276208666   -0.26392583988364
C          -0.26154383329707    1.06527088627401   -0.11717796976238
C           0.93437424749071    0.50784801263772    0.22773471680924
O           0.83614757222216   -0.82326613401251    0.30190084570914
C          -0.44318640689254   -1.15686128996909    0.00315863840530
C          -0.82753263866387   -2.54704461704041    0.00707362636421
C           0.11822986317855   -3.53802613592133    0.30524543672404
C          -0.23543166910291   -4.86497044098853    0.30549897496336
C          -1.55342667989423   -5.24758614879766    0.01099747100825
C          -2.50462204544919   -4.25393220124200   -0.28643270371867
C          -2.14460640101604   -2.93056098059309   -0.28776487534000
N          -1.80487547501876   -6.59194144721330    0.02083297206948
N          -3.01971894744423   -6.94240309536998   -0.16732216459399
C          -3.29851413842915   -8.25316944410118   -0.27716136672993
N          -2.55466885677829   -9.29483749598612   -0.55991212677340
C          -3.38666653059364  -10.35211864901567   -0.66368589034571
C          -4.68352997732048   -9.97925996664785   -0.43887788126629
N          -4.64671932923117   -8.62707241273594   -0.20194264801909
C          -5.66523591332204   -7.82465659708640    0.05948232844276
N          -6.54804002831899   -7.12907969534705    0.27709470453831
H          -2.19326030940760    0.05884767229702   -0.53156558686810
H          -0.47335411746636    2.10626508986792   -0.24897450676455
H           1.89178805416447    0.94226131395614    0.43790078093774
H           1.13085707302511   -3.24233462876189    0.53326961479216
H           0.48250153222938   -5.63774064318927    0.53126509769883
H          -3.51608530401016   -4.55807281878371   -0.51032517045752
H          -2.87941530374863   -2.17458619168029   -0.51664649277057
H          -3.00690005806377  -11.32706445087113   -0.89658337068947
H          -5.59961315546102  -10.53373472759100   -0.42595661447948
