31
         -50.983232660624          0.000333890190
C          -1.12619815051627   -0.11227514142090   -0.24761109423214
C          -0.39737501413022    1.08075316643675   -0.09433497411956
C           0.88702828311658    0.86363738948257    0.29310049284742
S           1.23247131831594   -0.80552671496381    0.47807894112652
C          -0.39448342701685   -1.24142605171769    0.02378381847368
C          -0.80281861391537   -2.62436194532501   -0.02530858878828
C           0.11148039576938   -3.65121381363150    0.24858568738555
C          -0.26191697968177   -4.97094999308196    0.19281127127207
C          -1.58466141706745   -5.32136016558786   -0.11582843871313
C          -2.50466795736750   -4.29644910425974   -0.39455774954614
C          -2.11869201422601   -2.97994531298773   -0.35516751183253
N          -1.87061128691178   -6.65376650937252   -0.21910099770992
N          -3.09654579503817   -6.99526882530321   -0.11738042828081
C          -3.41862354700575   -8.28565279066518   -0.34241700045070
N          -2.70637282334320   -9.30159175804609   -0.81037813067761
C          -3.54430021661298  -10.34212589928333   -0.87430687041540
C          -4.80131533300219   -9.97560163595004   -0.43855719936474
N          -4.71901171061655   -8.66781084075960   -0.10658759080163
C          -5.76271703552625   -7.83328633089486    0.41280968251795
H          -2.15688797696173   -0.12797106700523   -0.55151412862451
H          -0.81121872220976    2.05861567599556   -0.26535737204882
H           1.65826722039139    1.58360875794393    0.48211075781231
H           1.13007756609154   -3.39131619032990    0.49950685754905
H           0.44285040856276   -5.75996557270144    0.40300048897870
H          -3.51460749796755   -4.57047388492798   -0.66193005268666
H          -2.84131145686451   -2.21020592406933   -0.57857883883322
H          -3.21402056865602  -11.29856028351961   -1.22840283311514
H          -5.71059327017243  -10.53506456540026   -0.34923790665797
H          -6.63116184655317   -7.85601962263131   -0.24793455797131
H          -5.37554509808762   -6.81804797090323    0.47973593854311
H          -6.06544743279567   -8.17043707512022    1.40657832836406
