24
         -42.945991080801          0.000756118107
N           1.13088144757758   -0.10558196212689    0.10812059476366
C           2.48609948938988   -0.07326439956201    0.02788408714583
C           3.16588437077393    1.15041446788255   -0.07773684340004
C           4.53511700773319    1.18363113477638   -0.12593880531982
C           5.28314071408848   -0.00547267856332   -0.07003876528755
C           4.59851678199308   -1.23353255944626    0.03451632879617
C           3.23117889455599   -1.26374546962121    0.08258334548506
N           6.63572962940855    0.13278571792392   -0.13081397346504
N           7.32890556623819   -0.93991408923265   -0.02484102374634
C           8.65963825020676   -0.85910004115059   -0.19832721296096
N           9.41526073487799    0.01201479955362   -0.82056230887229
C          10.67423979210817   -0.47993662988238   -0.80304937035545
C          10.72268838721419   -1.68198226501917   -0.15708808734409
N           9.42872323232389   -1.95044196075634    0.22796783296719
C           8.99014650325287   -3.00493826900259    0.89182310658442
N           8.61230356313097   -3.92245493723508    1.46406639905026
H           0.60085127233595    0.73260540593698   -0.04703596445930
H           0.64913473488108   -0.98591122586801    0.07710074003644
H           2.59283381522327    2.06576592186477   -0.11940720257313
H           5.06889877272025    2.11719616148637   -0.20825268893344
H           5.17953299604056   -2.14245862826595    0.07804728218579
H           2.70654293142071   -2.20540662719125    0.16353853881280
H          11.47857364737096    0.06165285941028   -1.26014271798647
H          11.52794746513366   -2.35399472591099    0.05886670887593
