35
         -61.465168266487          0.000319899156
C          -1.21496836407872   -0.13401592176881   -0.06504769976684
C          -0.48510172893885    1.06483850682793    0.02060987938007
C           0.84842281553832    0.85534096991133    0.18110539942284
S           1.23958153476522   -0.81232696576111    0.22939635496751
C          -0.43488068063018   -1.25963608733005    0.02979527160405
C          -0.82834844382539   -2.64734101766016   -0.01111216964152
C           0.13135982086608   -3.66355088748748    0.08599973757204
C          -0.23135723940591   -4.98792853010245    0.05352792664823
C          -1.57927384044925   -5.35021712184866   -0.07523199280517
C          -2.54695088899434   -4.33630201093546   -0.17732430444885
C          -2.17632328897306   -3.01554562933743   -0.14547107064401
N          -1.84618171323325   -6.69566115889023   -0.09728806895811
N          -3.08324016205086   -7.01694123021972   -0.15405801171590
C          -3.39091078755256   -8.32311041755422   -0.24116326345449
N          -2.63509154587830   -9.37496973034724   -0.49919603339485
C          -3.45978388214790  -10.43119531653880   -0.55677881574316
C          -4.75836730984098  -10.04527245605981   -0.32957849394481
N          -4.72622747153009   -8.69564362590279   -0.13336478408329
C          -5.81476144157027   -7.88805424277566    0.12635637376121
C          -7.15475766434493   -8.17509245828063    0.09091575402445
C          -7.80956259317711   -6.97090684712460    0.43977294608558
C          -6.82712315112118   -6.05608762323094    0.65781839621440
O          -5.61397999376469   -6.60688651512993    0.47114143658009
H          -2.28160440468545   -0.15611193951114   -0.19425632330651
H          -0.93255645071464    2.04128919580613   -0.03399963431058
H           1.63121228979334    1.58162602072293    0.27462596592977
H           1.17270723997015   -3.39270433820895    0.18771193179846
H           0.50468963307802   -5.77271036240884    0.12866266197964
H          -3.58226002284323   -4.62568171702766   -0.27640928221328
H          -2.93321597629112   -2.25006522235649   -0.22304194820005
H          -3.08385249458963  -11.41443494650371   -0.75992663759887
H          -5.66607593172124  -10.60966745565372   -0.28778348432466
H          -7.61470927537743   -9.10909531730576   -0.15536053623898
H          -8.86592308554721   -6.81652890083098    0.51452987281781
H          -6.85536350073327   -5.02325869917406    0.94079264600754
