21
         -34.979645600516          0.000922844216
H           1.02398031784946    0.08282934744018    0.12254501044974
C           2.10111719916971    0.09936263021093    0.04303578191424
C           2.77203673704374    1.31182155549551   -0.03465044140050
C           4.14586629058981    1.33846206503119   -0.15047257406160
C           4.87253076559658    0.14121745077563   -0.16449536078780
C           4.18601276566465   -1.07944677782165   -0.08766852814084
C           2.81111886980670   -1.09278286212041    0.00945990407684
N           6.23197654304199    0.25106057470797   -0.33161371172068
N           6.93600233554737   -0.75400142909587    0.01254345470295
C           8.26626331913095   -0.69980562946289   -0.22360444971574
N           9.01417702230520    0.17107307372298   -0.88167437379475
C          10.26902990335370   -0.29556409887702   -0.82347214072234
C          10.31390632412523   -1.47833302394261   -0.11683733927987
N           9.03722929451384   -1.72982742256869    0.25502408619380
H           8.69701328976124   -2.50900950684351    0.79429015314041
H           2.21461182585004    2.23682488084347   -0.01196385603267
H           4.68901104542771    2.26848609116231   -0.21290793541229
H           4.75655773117136   -1.99539831806726   -0.12708562928485
H           2.28334747879772   -2.03449719705033    0.06002188564103
H          11.07669749749897    0.23347202879762   -1.28933098474896
H          11.13036344375416   -2.12495343233759    0.13182704898386
