23
         -42.708709046700          0.000692175406
C           1.14756365775355    0.01435456604315    0.08454484294296
O           2.49742667211115   -0.01249330036693   -0.32059594860579
C           3.13519915832882   -1.19846966183116   -0.41392579962183
C           4.47519820657010   -1.13712680641982   -0.82216330233922
C           5.21947615131297   -2.28260313649087   -0.94381466536896
C           4.64558203802567   -3.53242311053901   -0.66629546405348
C           3.30474641657243   -3.59019828766647   -0.26141414334648
C           2.55869458211896   -2.44120120089494   -0.13459188383701
N           5.46760198155829   -4.62246773082771   -0.82065187229373
N           4.97204126484114   -5.75664803016927   -0.57681661588359
C           5.65524522910860   -6.88870137262807   -0.83649582694996
N           6.17303820490103   -7.23050869501192   -2.05452309553778
N           6.53722308709008   -8.44947871497320   -1.96828675965050
N           5.70318486877847   -7.92787285711633   -0.00038210649752
N           6.27575887368351   -8.85459495194136   -0.74881435388956
H           6.46523281847249   -9.78548550501039   -0.40767760302687
H           0.86523664413225    1.06569747853893    0.09352627177700
H           1.02199123606867   -0.40235951669916    1.08831168820428
H           0.50767249864287   -0.52624473792178   -0.61923692569794
H           4.89605151719249   -0.16708361201437   -1.03418356248912
H           6.25041085174689   -2.24863134969365   -1.25838230102609
H           2.87257320080443   -4.55585609266260   -0.04604063833451
H           1.52946084018513   -2.51273337370274    0.18112006552583
