28
         -52.547559150741          0.000509245034
C          -1.17096467660929   -0.14766240646481   -0.27818562875089
C          -0.30987202745881    0.93328348260457   -0.00226897511567
C           0.85494902588428    0.37893079940736    0.43856848609403
O           0.77145483169285   -0.95584350971214    0.45313708394128
C          -0.46602707020362   -1.29386721574367    0.01580787977724
C          -0.82739483627134   -2.68975675277629   -0.06333222816958
C           0.09462045388552   -3.67629577775451    0.30905703353492
C          -0.24164023992056   -5.00761749039871    0.24749096854563
C          -1.51321929950007   -5.39537178004287   -0.19478039956211
C          -2.43822979219652   -4.40855479688539   -0.57387614596270
C          -2.09896348606355   -3.08031197390936   -0.50669795117006
N          -1.75601474619166   -6.74893801025499   -0.21974735798798
N          -2.90153849663666   -7.11313101218645   -0.62036136822567
C          -3.14143485921933   -8.43196832481782   -0.78862093594516
N          -2.28903193940859   -9.34581551311883   -1.30038610580155
N          -2.96492085666377  -10.43105661285980   -1.46243406824098
N          -4.36633741959298   -8.96129069550978   -0.62948048449348
N          -4.17899781249702  -10.18375267003694   -1.04725124141014
N          -5.18890411568492  -11.09193799211160   -1.12663538766675
H          -2.17456481364394   -0.08212024317513   -0.64420953495724
H          -0.52551387391358    1.97582415653276   -0.11502523077876
H           1.77962054550389    0.81698560561924    0.75924404809949
H           1.07430088315076   -3.37526145765127    0.64730731597221
H           0.45955504347849   -5.77692997890576    0.53063253538793
H          -3.41481238895746   -4.72227036969614   -0.91033035784208
H          -2.81511175569955   -2.32727990547363   -0.79676795931709
H          -5.92553280642887  -10.86415363228683   -0.46869858456501
H          -4.83125347083361  -12.03553592239110   -1.02990540538982
