30
         -56.025270567784          0.000935968357
C           1.80835684902196    0.33779875723497    0.79014553674661
O           2.49869515303648    0.09407709567937   -0.41438399048100
C           2.87948245888274    1.13946694005413   -1.17850706458761
C           2.64549468896199    2.48158124111208   -0.87246448771919
C           3.08561057740150    3.46781363896271   -1.72791436445614
C           3.76265450668172    3.14458767464698   -2.90821590088711
C           3.99421337891973    1.79120161276606   -3.21307782225134
C           3.56097256816639    0.81058089810893   -2.36082398736430
N           4.14878126572192    4.20615157850454   -3.68811473452444
N           4.77047110383970    3.94162634629842   -4.75632470203957
C           5.04695088017992    4.92204050230588   -5.63915536383809
N           4.14828617621437    5.82833572176434   -6.11511426306721
N           4.72406884428678    6.44604253797222   -7.07331617866392
N           6.19153681626196    4.98444905000630   -6.32427231123971
N           5.94673025602186    5.95310479461697   -7.18384048794578
C           6.84476822911776    6.41557023336448   -8.11513537939048
C           8.13731034572646    6.06408885538930   -8.42126143980181
N           8.58067547389301    6.84760674198214   -9.43131771058345
C           7.60008000489604    7.65117131865222   -9.73662397746506
N           6.50976861238315    7.43466653646060   -8.96320083435098
H           5.61537788628071    7.89856654509443   -8.97619562913198
H           1.61799600292687   -0.64299318414375    1.22246264490828
H           0.85571774225641    0.84527178437369    0.60963198885819
H           2.41193119362474    0.92906304144148    1.48551531032905
H           2.12282700916472    2.75991846812988    0.02891323189095
H           2.91097872892989    4.50871856585822   -1.50532430133211
H           4.52061682954435    1.54905461045167   -4.12350255182998
H           3.72956428553915   -0.23367859934667   -2.57300607900903
H           8.74864491238388    5.30845368752606   -7.97500636808634
H           7.63822721973911    8.39753300473500  -10.50363878268625
