26
         -52.951424223284          0.000807389472
C          -1.19588044759676   -0.12777917539130   -0.12214837670432
N          -0.42715742766828    0.97874764753691   -0.07791052252516
C           0.80530657545529    0.55608657895139    0.01587514526256
N           0.87394943355973   -0.79168119768546    0.04531653397447
H           1.70995886562879   -1.34965559317730    0.09545308893703
C          -0.41349131450837   -1.26856376614466   -0.04839402968928
C          -0.76740690424815   -2.66394973275185   -0.05049099301674
C           0.16749093945661   -3.66137703905068    0.26258154805435
C          -0.18856526654061   -4.98856447543944    0.25132034293060
C          -1.49662371687280   -5.36811388586220   -0.07860597405011
C          -2.44079136506953   -4.37335292784942   -0.38734495149780
C          -2.07939167227344   -3.05086590670028   -0.37024326092487
N          -1.74568647025169   -6.71694085477959   -0.08016859206833
N          -2.91928751017647   -7.08779748830394   -0.35129994141971
C          -3.23766175194547   -8.37811165616266   -0.54230476951766
N          -2.67012456395809   -9.19050422926535   -1.47966984585388
N          -3.38787696080585  -10.25183655301123   -1.53369344931514
N          -4.32723796231925   -8.95296498902854   -0.01755520967821
N          -4.32462524039494  -10.08318806301546   -0.66199419938866
F          -5.27313984078656  -11.00544861760479   -0.44277256297663
H          -2.26155544867225   -0.04468803115690   -0.18808815754036
H           1.66693107602734    1.19149260366235    0.06502338774103
H           1.17954714541158   -3.39486181717638    0.53039436598962
H           0.52518461015935   -5.76121194727658    0.49051853216418
H          -3.44675306588039   -4.67586152421763   -0.63554956007192
H          -2.80476171572994   -2.29110735909882   -0.61479854881497
