33
         -61.617134770293          0.000456524066
C          -1.18055311370511   -0.25056783836691   -0.09249446799145
N          -0.39692813917051    0.84698416792561   -0.04033194295308
C           0.83172871051060    0.40775626072061    0.00490867144152
N           0.88413946991713   -0.94172946906983   -0.00729088558877
H           1.71360133651562   -1.51128112687512    0.00482660562232
C          -0.41111206225826   -1.40065638568604   -0.07472273284607
C          -0.78131406042796   -2.79342706227072   -0.10118402418430
C           0.15537165368759   -3.80784058259909    0.14047635192155
C          -0.21905316715947   -5.13034466576763    0.12732608169694
C          -1.54509812697073   -5.48825374786615   -0.14680136877903
C          -2.48925610178146   -4.47703883532834   -0.39142902841258
C          -2.11103249033006   -3.15858166570213   -0.36293726847076
N          -1.82629337955184   -6.83175104374711   -0.11547097771618
N          -2.98222325556701   -7.18422055546545   -0.49380429873032
C          -3.27588446779592   -8.50007714131236   -0.55498515691204
N          -4.54143910402849   -8.95381144392574   -0.37171467018249
N          -4.52821497638370  -10.20339946995438   -0.62235609752185
N          -2.47006383968647   -9.49430184892868   -0.94088360009189
N          -3.29272885935641  -10.51827108108503   -0.97950149010358
C          -2.91421472197086  -11.78386762982343   -1.35154944066090
C          -3.70925983642899  -12.89409198935327   -1.40920870284019
C          -2.98367965943564  -14.02661947402528   -1.82520642075757
C          -1.67377898664348  -13.75337100070843   -2.06979145593834
S          -1.27749861554547  -12.10247682405102   -1.79958341572802
H          -2.24647642093605   -0.15318002099723   -0.12582994795972
H           1.70273401859814    1.03074653465241    0.04805780554734
H           1.18402859001683   -3.55975955068886    0.35951514457083
H           0.49608706837206   -5.91602110321074    0.31531736384354
H          -3.51093974903199   -4.76509958810738   -0.58732106044292
H          -2.83943617926199   -2.38547536591682   -0.55089156297102
H          -4.75413261569992  -12.87946522432938   -1.16245478102559
H          -3.41940324116152  -15.00249153365899   -1.93756497412784
H          -0.90813567732844  -14.42827369447749   -2.39638825170772
