33
         -61.619178529596          0.000705905933
C          -1.15159170170036   -0.35445334468341   -0.09803680128869
C          -0.39906797487710    0.83051879157106   -0.02697380238835
C           0.93629151747305    0.59671885362991    0.08515780616382
S           1.30089147770530   -1.07629424838285    0.11224304930455
C          -0.38655743097016   -1.49375916379342   -0.03737890407512
C          -0.80586580336944   -2.87290819032409   -0.07541368761019
C           0.11655662448145   -3.90448822849156    0.14867912336612
C          -0.27525085024242   -5.22055011794985    0.13712950465353
C          -1.61162163743243   -5.55666003459501   -0.11958588983403
C          -2.54049837474083   -4.52961477046147   -0.35596222419633
C          -2.14345263002123   -3.21667254895280   -0.32899453206824
N          -1.92447569193297   -6.89215269352521   -0.07468638948687
N          -3.09343283398700   -7.21716368552609   -0.44362921269544
C          -3.42440962961755   -8.52486440410166   -0.47597874778050
N          -4.70614396847345   -8.93595440520323   -0.30573352117467
N          -4.72689659222437  -10.19369771617820   -0.51346185356442
N          -2.63938958997868   -9.55584610921231   -0.80949614909637
N          -3.49718151407958  -10.55983200487153   -0.83035352470270
C          -3.11482942571213  -11.83899846940901   -1.15224363360452
C          -3.80677922779530  -13.02271691923140   -1.25338671548656
N          -2.94636787240414  -14.00754032292244   -1.59803897319726
C          -1.76959389419271  -13.45405371881424   -1.70541524097032
N          -1.81018237685920  -12.12699038379196   -1.44256899629852
H          -1.06618144518402  -11.44659194148943   -1.44790339054049
H          -2.22328704697044   -0.35876045271729   -0.18063168340424
H          -0.83079560035436    1.81502244625339   -0.05763956994002
H           1.73365993567938    1.30937439339400    0.15641057024910
H           1.14889636042408   -3.65146013282752    0.34277451424571
H           0.43235425883804   -6.01556863808415    0.31348681096114
H          -3.56895417805903   -4.80081909147021   -0.54084837886427
H          -2.86975753183173   -2.43981682091511   -0.51017118162241
H          -4.84936097134787  -13.20443666698186   -1.09798977378318
H          -0.87188438024364  -13.97525925994089   -1.96856860126957
