33
         -62.085054785351          0.000671155562
C          -1.12759935051934   -0.31541150447247   -0.32476650310380
C          -0.27457847529536    0.74280089646743   -0.16592727838574
C           0.95392110085487    0.15592868033613    0.19564353763762
N           0.85305068506929   -1.14951025363158    0.25073331738593
N          -0.41466488305063   -1.44572732067846   -0.06566260542808
C          -0.83639204445530   -2.76894919795048   -0.08806089580458
C           0.08634634822753   -3.76799232588230    0.23766801935496
C          -0.29590272288687   -5.08761837427987    0.24299881325677
C          -1.61016684726678   -5.44497472672643   -0.08809758802455
C          -2.52995377141940   -4.43894643380664   -0.42235094706606
C          -2.14926222936937   -3.11840739306625   -0.41891755099906
N          -1.90816399923949   -6.78597516939196   -0.02827618944906
N          -3.07512313833051   -7.12609781928040   -0.38516833275118
C          -3.39138134172261   -8.43807463673092   -0.41480948542660
N          -4.66224422002369   -8.86650249808671   -0.21130031091999
N          -4.67201827137631  -10.12329959578081   -0.42403552587198
N          -2.60265903737666   -9.45655550492068   -0.77605891846467
N          -3.44710487355507  -10.47175248540282   -0.77804016207540
C          -3.06163729771854  -11.74535699715601   -1.11811529010663
C          -3.74601306461544  -12.93565144975457   -1.19342827413832
N          -2.89153598689839  -13.91141398404977   -1.57514184567228
C          -1.72537008704700  -13.34665559249538   -1.72896780247687
N          -1.76717806394900  -12.02048663819322   -1.46186880697977
H          -1.02864186633799  -11.33514328526550   -1.49660038071163
H          -2.16234141442856   -0.33189240789324   -0.59573117320144
H          -0.49059171082623    1.78383746980787   -0.28788963642269
H           1.88665314919535    0.63730392035876    0.41186696575453
H           1.09207149270827   -3.47063918040508    0.48737898861935
H           0.40279881555938   -5.86940841447033    0.49532650764465
H          -3.54106652617635   -4.72703155672558   -0.66677266930388
H          -2.87336464336100   -2.35993757120810   -0.67119966684739
H          -4.77968175350356  -13.12683339074164   -0.99558786515944
H          -0.83442397086514  -13.85913525852097   -2.02976044486287
