28
         -52.574405283050          0.000660026305
N           1.41817412860501    0.35600909300474   -0.08115570919904
C           2.76424518181597    0.15734511585985   -0.06878698956778
C           3.56294777313841    0.74546468856885    0.92349695307504
C           4.92446900793213    0.57844910019624    0.91107212635376
C           5.54058898289481   -0.18154370641281   -0.09536094617443
C           4.73936251457621   -0.76932852140915   -1.09198680488281
C           3.37998489989677   -0.60330331357235   -1.07650645114852
N           6.90293196887810   -0.28399537279041   -0.02701723770082
N           7.47345252564783   -1.00131890401625   -0.90067618051900
C           8.81509123892241   -1.04449504546761   -0.98973006809603
N           9.47703573244033   -2.19655499721691   -1.28695685990731
N          10.69668629028185   -1.88647702723346   -1.47833154258737
N           9.65013227455725   -0.00138904105504   -1.01312932455853
N          10.80091493256410   -0.57529064695453   -1.33376047706403
C          11.96105458203028    0.14599765451943   -1.49841511177634
C          12.17939278478910    1.49159912990915   -1.37646997111488
C          13.55449866205586    1.66701909644897   -1.65422512275697
C          14.05159197323924    0.42676715089479   -1.91746022049431
O          13.08669228996091   -0.50524090059623   -1.82533490330763
H           0.97655324928432    0.76626047513316    0.72261032308457
H           0.84664281546814   -0.19763163052555   -0.69473735968492
H           3.08990258628083    1.33149016697349    1.69852953627517
H           5.54716961515606    1.02425867019102    1.67082263685734
H           5.22285282369627   -1.35580300771752   -1.85851263630183
H           2.76373969880113   -1.05623730585414   -1.84071302109868
H          11.45069787830204    2.23251174571054   -1.12443167495409
H          14.09425798363899    2.59128811441872   -1.65559909099310
H          15.03459560514188    0.08525921899152   -2.17251387176008
