33
         -62.440942231090          0.000783989484
C          -1.12341073275049   -0.31116512659289   -0.13530497119883
N          -0.32169665932786    0.77380921726476   -0.10207438337854
C           0.89941985108854    0.31501453141221   -0.04737137171613
N           0.92933893104311   -1.03522950495421   -0.03511358867807
H           1.74911442538520   -1.61820807577668   -0.01127023523426
C          -0.37335842229758   -1.47369211974716   -0.09593443840967
C          -0.76851435575159   -2.85941246970457   -0.09636724202771
C           0.14999483865928   -3.88823452022191    0.15402671804176
C          -0.25087587427041   -5.20314106993355    0.17112457709416
C          -1.58639428297339   -5.53948121604359   -0.08288195208170
C          -2.51185169778635   -4.51388704434057   -0.33918201731837
C          -2.10760939271352   -3.20314216988217   -0.33910534206755
N          -1.90242987129968   -6.87355371162012   -0.01123469562604
N          -3.06226533210484   -7.20652874710802   -0.39347242512904
C          -3.40391868462068   -8.51129541579356   -0.40597405894393
N          -4.68642310618200   -8.91066999513068   -0.20142235063724
N          -4.72313005338702  -10.16582723995957   -0.40575820093989
N          -2.63754067854833   -9.54831698703230   -0.75803970906978
N          -3.50302377562721  -10.54529620741715   -0.75630723837338
C          -3.13971622219353  -11.83103520085714   -1.08697457261160
C          -1.91299605494323  -12.32540399783429   -1.44040728949425
C          -2.12373757629666  -13.70547537964626   -1.65945886795043
C          -3.44616057177000  -13.93169038111994   -1.42192204091004
O          -4.07133765145287  -12.79442383695386   -1.07331247041395
H          -2.18744236523872   -0.19609260804852   -0.17174098901080
H           1.78061445278128    0.92405888940047   -0.01393829474159
H           1.18612311956413   -3.65753162091227    0.35603652223851
H           0.45227777013358   -5.99773376195787    0.36700680567678
H          -3.54155888314711   -4.78445161363651   -0.51698933966258
H          -2.82339144257306   -2.41995930686685   -0.53320133858025
H          -1.00491090617875  -11.76735647395108   -1.52574552768087
H          -1.38873717341377  -14.42620522517207   -1.95171834646530
H          -4.04132162180813  -14.82157160986179   -1.46357132469922
