23
         -46.878101473348          0.000768481231
C           1.24382471209398   -0.35826672825084    0.51388323277034
O           2.20395111904455   -0.04422553823577   -0.47061427977550
C           2.82527747447470   -1.03952725696744   -1.13061303307729
C           3.76560107339924   -0.63826521576404   -2.09201495506841
C           4.45793511974220   -1.57016929620858   -2.82055357673925
C           4.22945059173226   -2.94092122357679   -2.61653769971964
C           3.28835911804510   -3.33880422029748   -1.65485060369848
C           2.59744662593670   -2.40422565687887   -0.92027319802594
N           4.96211284518124   -3.79532547216548   -3.39695355043774
N           4.78073144271202   -5.03273620979166   -3.23568125103167
C           5.32717735326843   -5.94794711702803   -4.05245618464053
N           5.14334346650917   -5.99937688645618   -5.40302305421374
N           5.60461727024822   -7.12895626177764   -5.79783639321887
N           5.90731055611765   -7.07223261045024   -3.61297190040167
N           6.05193990660932   -7.71209872113004   -4.73670341452241
F           6.61274221350289   -8.93034892877298   -4.77095313102260
H           0.89779048878812    0.59844839114138    0.90054627060848
H           1.68261925133241   -0.94066589009243    1.32891110433899
H           0.39747527993682   -0.90381604549922    0.08708236168816
H           3.92284235843379    0.41888247021743   -2.23594614836763
H           5.18125228638617   -1.27419127618511   -3.56349727562002
H           3.12389048470941   -4.39441529401674   -1.49964930312318
H           1.88143896179565   -2.73565501181344   -0.18447401670150
