26
         -53.299106130630          0.000844807303
C          -1.16837527845957   -0.11095630657729   -0.32985340936055
C          -0.29883317984287    0.97805195683742   -0.12780508938817
C           0.87623673462103    0.44074804589973    0.31041198366893
O           0.79053384319305   -0.89014092225525    0.39196169283217
C          -0.45800149609057   -1.24512672855463    0.00180265894557
C          -0.82178349373924   -2.64040038906477   -0.00809167094788
C           0.10284503712140   -3.61053522265404    0.40358297194857
C          -0.23182259216590   -4.94281448624262    0.39783520763316
C          -1.50543793536276   -5.34890274608191   -0.02636512921352
C          -2.43492733968278   -4.37833727594710   -0.44029032680092
C          -2.09699358389669   -3.04914219313819   -0.42814241322033
N          -1.74112293034675   -6.69980203758148   -0.00722744743382
N          -2.88158868270589   -7.09322938356138   -0.37183836834413
C          -3.16770083919763   -8.39361100907274   -0.54492847406608
N          -2.49166523889691   -9.23935114782324   -1.37461168330022
N          -3.19326936692401  -10.30830199990489   -1.46654102836414
N          -4.30885499712175   -8.95610056718915   -0.12699921763423
N          -4.22641954122602  -10.11222584570562   -0.71781851035512
F          -5.19105931184733  -11.03259698906004   -0.57287077562145
H          -2.18114379606520   -0.05953394055409   -0.67210601687176
H          -0.51440716593221    2.01457653845157   -0.28575915250376
H           1.80962570748184    0.89147015630049    0.58514943955064
H           1.08289104896475   -3.29414886396103    0.72569933220621
H           0.47073656913127   -5.69939406695740    0.71023600947628
H          -3.41274533634041   -4.70533188242696   -0.76003025699180
H          -2.81451683466862   -2.30891269317547   -0.74567032584387
