27
         -53.298743859305          0.000917095174
C          -1.23241951521471   -0.20113054455622   -0.14368492929317
N          -0.48761105723157    0.91768652068001   -0.04436146486619
C           0.74525766064820    0.51584305007000    0.11397172482445
N           0.83679335071929   -0.83071062636605    0.13389183548136
H           1.67876156940297   -1.37481609071706    0.22258081083089
C          -0.43445264493591   -1.32882687336822   -0.03792987795198
C          -0.76480440131413   -2.72921607899004   -0.06907289888264
C           0.16041585682973   -3.71315400216210    0.30886556277528
C          -0.17595346889831   -5.04510635736950    0.27682329061222
C          -1.45162992941774   -5.44220622932541   -0.14523629855392
C          -2.38574615810432   -4.46196691548405   -0.52189876586695
C          -2.04561554004729   -3.13454234877114   -0.47980969674919
N          -1.68676313335607   -6.79436108788145   -0.14825365429660
N          -2.80290152055414   -7.19060702626686   -0.55840561101331
C          -3.17128850872305   -8.46102477104115   -0.73425741796214
N          -2.77977799609352   -9.21516146349432   -1.82473024440168
N          -3.48514919630029  -10.25556745054897   -1.83247402924849
N          -4.14928564283451   -9.06905053185498   -0.07744008329145
N          -4.31305103251400  -10.19587494721349   -0.78769129426222
C          -5.20677072146621  -11.13361685223867   -0.48451889470073
N          -5.96906328884007  -11.94734201814361   -0.23316134508584
H          -2.29418432020678   -0.13619586483464   -0.26746976753937
H           1.59072108132975    1.16610055645496    0.21807280895692
H           1.14715287305146   -3.43190024232132    0.64659136474529
H           0.53009365110001   -5.80704842608008    0.56772090851876
H          -3.36847954985501   -4.77732332573573   -0.83848757810141
H          -2.76304841717297   -2.38527005244025   -0.77462445467823
