29
         -51.947144810410          0.000842894896
C          -1.18489989197216   -0.18658902114520   -0.27146170953663
C          -0.39594852009558    0.89543949112495    0.01190344453874
C           0.81390515020702    0.34009564514777    0.47100410353645
N           0.76165109589090   -0.96954329440310    0.46576560350405
N          -0.45505626481208   -1.29891735618639    0.01390577661339
C          -0.81832024860697   -2.63591711395321   -0.09984836237345
C           0.11790390925145   -3.61287393548650    0.25137830415723
C          -0.20870158373690   -4.94537782692921    0.17084558911312
C          -1.47675073310167   -5.33648953232021   -0.27843353643956
C          -2.41027786764686   -4.35239400375971   -0.63559181152262
C          -2.08715982419795   -3.01915789446378   -0.54339165607454
N          -1.72122636307613   -6.69049550549196   -0.29944747729534
N          -2.81042259139291   -7.06763727224725   -0.81674526303542
C          -3.05176167891214   -8.39080848825751   -0.95312964071484
N          -2.17328111747503   -9.31995517221500   -1.41566642183749
N          -2.83929812207446  -10.40121039824023   -1.57299734398551
N          -4.27215517520766   -8.92011827992004   -0.83534310343092
N          -4.07632802537592  -10.16532382001109   -1.21042804339132
C          -5.11820789838308  -11.14280536244786   -1.23959122447880
H          -2.18552177544314   -0.23010759702065   -0.64719441142203
H          -0.64201351553651    1.93181758640032   -0.09128535887654
H           1.70035208722261    0.84575700106678    0.79777379311838
H           1.08941273933201   -3.28995138926595    0.58920230842047
H           0.50164184006728   -5.71122575295967    0.43850556495496
H          -3.38808982337290   -4.66586470150596   -0.96839047947120
H          -2.82250707495907   -2.27790578214218   -0.81422342531984
H          -6.00783150462161  -10.69793345265689   -0.80003769847971
H          -4.81152007506758  -12.02071950810821   -0.67120548089112
H          -5.32077714690267  -11.44093726260200   -2.26894203937933
