26
         -52.471735672853          0.000879287693
C          -1.17385660413987   -0.20035768457913   -0.14357193126531
C          -0.46070024802075    1.00570435406506   -0.04650088821602
C           0.86264080651636    0.81248701191237    0.20615486196499
S           1.26329401963295   -0.84601480356074    0.33411040427898
C          -0.39104935513326   -1.31580432173698    0.03754376140075
C          -0.77024963190309   -2.70551645105234    0.00906913918126
C           0.16845900615217   -3.70713144498416    0.29648965998624
C          -0.18234201020124   -5.03433763143129    0.27394971401703
C          -1.49433123697397   -5.41221478118791   -0.04581221826872
C          -2.44142167687310   -4.41530068777811   -0.33589018325577
C          -2.08407412815962   -3.09169132735488   -0.30647908958698
N          -1.74670604921343   -6.76044206640181   -0.05337197769934
N          -2.91801936254703   -7.12773205316889   -0.33666604113403
C          -3.25106181489616   -8.41323948935701   -0.52939107859313
N          -2.71449958348059   -9.21962790246371   -1.49084897189781
N          -3.44337006687412  -10.27320658648324   -1.54016813371787
N          -4.33247233063394   -8.98466616245070    0.01498743024142
N          -4.35718508092130  -10.10759435219545   -0.64435912431893
F          -5.30965326996891  -11.02329754817662   -0.41357520379352
H          -2.23055759619061   -0.23643974257800   -0.33528465296303
H          -0.90983311826348    1.97611053675621   -0.15941534346235
H           1.63091964180451    1.55034776966508    0.32610787832898
H           1.18143822035923   -3.42189806961002    0.54052636908958
H           0.53664193870189   -5.80774400048443    0.49341484685712
H          -3.44987302954501   -4.71601658763622   -0.57684484456762
H          -2.82194743922774   -2.33854597772688   -0.53378438260623
