24
         -47.225831107080          0.000772651048
C           1.79171769192404    1.02963340993966    0.31579685997356
O           2.28097091429653    0.00956251341819   -0.52717710183974
C           2.96638108851093    0.34043675140216   -1.63592398983010
C           3.25127784675401    1.64722972684405   -2.04241503956219
C           3.96193381639647    1.86689700438763   -3.20109958838484
C           4.40338884942268    0.79444812598718   -3.98434251426881
C           4.11650111757890   -0.52000040421761   -3.57114378385269
C           3.41268423016792   -0.73868497764656   -2.41826419234561
N           5.09393581602894    1.12583187274710   -5.12154832438531
N           5.50470625922830    0.19347799982165   -5.84970508081591
C           6.11279296193870    0.31223855568718   -7.03102282807208
N           5.41925260040931    0.45112698228322   -8.21857549948787
N           6.24047181639231    0.27904527952456   -9.15455194315276
N           7.38803547844069    0.03744345503161   -7.26849971389326
N           7.43368220951029    0.03076525132332   -8.61114884933654
C           8.54205503593077   -0.20341789045370   -9.30740007058192
N           9.48873727867583   -0.40256272753281   -9.91660072401492
H           1.27892260186907    0.51743664790061    1.12786099947019
H           1.08302870406693    1.67602352596463   -0.20988857655543
H           2.60619336890069    1.63398653063607    0.72534970935187
H           2.92032307841733    2.49117060055588   -1.45843873132108
H           4.18767774888986    2.87000077889256   -3.52735313346709
H           4.46349515320737   -1.34189920421695   -4.17863733318614
H           3.18153433304254   -1.73677980827996   -2.08082055044012
