21
         -38.890162341573          0.000839204045
H           1.25697133396852   -0.17839984651686   -0.21908378649625
C           2.33372805258198   -0.11656834933181   -0.15968153836539
C           2.95580006232077    1.12326037853840   -0.15296020353383
C           4.33128261161456    1.20612945110407   -0.07381168255964
C           5.09843445133573    0.03831032483090   -0.00836357353401
C           4.46303249099267   -1.21116148960201   -0.01295228488495
C           3.08878830645282   -1.28017252646854   -0.08692531220260
N           6.46592207724122    0.22135854954826    0.06278471962583
N           7.17473875503780   -0.82432609505470    0.06303326720797
C           8.51970442716473   -0.70513529554038   -0.00390939398885
N           9.21067880965019    0.15824961440766   -0.77856804788612
N          10.44803769414979   -0.19540520275546   -0.70972498899087
N           9.34239386565242   -1.61028341266771    0.55160370321085
N          10.50246101749112   -1.22191794346587    0.09877030396148
N          11.67088008532578   -1.80836879070221    0.47175064479770
H           2.36228603169647    2.02370114169136   -0.20846103963710
H           4.84132196665901    2.15671512170551   -0.07032458924434
H           5.07209477593334   -2.10037584677456    0.04872658900048
H           2.59574106221216   -2.24143589317513   -0.08873868616098
H          11.54314551920976   -2.79834383331598    0.64913472895522
H          12.39716660330917   -1.60412005645535   -0.20474882927480
