20
         -39.988387162168          0.000482724741
H           1.18044948659307   -0.12741338832599   -0.14405828625667
C           2.25776074209743   -0.05509469372061   -0.13471463861082
C           2.86527530080450    1.18571071739049   -0.00450049154573
C           4.24170799984978    1.28180467497234    0.01510519014225
C           5.02121687269593    0.12616266080818   -0.10967335067343
C           4.40210555586706   -1.12478611868000   -0.24062222959841
C           3.02663105928500   -1.20673643384293   -0.24924896571952
N           6.38636923110457    0.32146781791186   -0.07037326698667
N           7.12052004356287   -0.66159216556995   -0.29930812997696
C           8.45425595390165   -0.65569847054862   -0.37705644397301
N           9.13579057096104   -0.30533824849330   -1.52618194129697
N          10.33642882734804   -0.64139771776788   -1.36529110433886
N           9.27358310095195   -1.22927376114497    0.49177843540449
N          10.44779354325340   -1.19628782867970   -0.15859245203327
C          11.58288118970912   -1.67079454280879    0.34907514172729
N          12.56179494790151   -2.07366407701111    0.78038450006853
H           2.26063440279163    2.07546090602513    0.08487715831524
H           4.74040568026004    2.23317089910932    0.11363335962133
H           5.01980800412703   -2.00665154412010   -0.32126951195824
H           2.54432748693417   -2.16809868550332   -0.34486297231149
