26
         -48.768374723464          0.000809292215
C          -1.13508290464116   -0.07400821991752   -0.35081080193476
C          -0.30957438949357    1.00893402199284   -0.21625015053072
C           0.92174842130912    0.46574247339707    0.20019681083246
N           0.84786186812832   -0.83816207901016    0.30754005944327
N          -0.40441101125048   -1.17613809039553   -0.02667476735967
C          -0.79671441127102   -2.50846263648133   -0.00804564258108
C           0.14563482700595   -3.47755120074589    0.34925342035228
C          -0.20696137325505   -4.80559772557767    0.38439128493170
C          -1.50968015132288   -5.19990165512650    0.05262046597560
C          -2.45159659365683   -4.22343553569243   -0.30442464080514
C          -2.10097902254805   -2.89490044577081   -0.33164341644471
N          -1.77116272678931   -6.54985261319389    0.11850476345789
N          -2.92097244591183   -6.92414637405222   -0.23881820907978
C          -3.22595915865997   -8.23249938144920   -0.33861911712158
N          -2.51051708493287   -9.15761583830377   -1.04731847515060
N          -3.22024292387755  -10.21463546411191   -1.08924445251232
N          -4.39553339858982   -8.74467540994794    0.04856349087443
N          -4.32598888658678   -9.97522489868550   -0.42455255453310
H          -5.06892662615964  -10.64684400720951   -0.29825631574297
H          -2.16116781562329   -0.12501815016179   -0.64891759579729
H          -0.54494371308517    2.03867284458155   -0.38818791794085
H           1.83780594625059    0.97705826086151    0.41875868234418
H           1.14370403233933   -3.15254755416424    0.59512324273015
H           0.50802835382992   -5.56571738197154    0.65616720488372
H          -3.45539413220053   -4.53762541796980   -0.54671828783311
H          -2.84086467900673   -2.15905752089428   -0.60412708045906
