30
         -55.543409856655          0.000976251878
C           2.19437471711514   -0.63691063621244   -0.91603352481272
O           3.12207696742000   -0.24887959805441    0.07151089525827
C           3.53542701958191   -1.15687953512412    0.98184901028117
C           4.44464765163806   -0.68549087933988    1.93950528614128
C           4.91866693555901   -1.51946894968672    2.91938895579675
C           4.50824340423921   -2.86060847885235    2.96755639436376
C           3.60481204354258   -3.33019688231199    2.00338832804431
C           3.12054583068038   -2.49098199133652    1.02663025976778
N           5.02268650741428   -3.61563294299161    3.99180908208555
N           4.70239686639395   -4.84117983191984    4.01840812032317
C           5.25984893332037   -5.64208071935431    4.95156795608688
N           4.60159728966290   -6.72368782825930    5.44022908423526
N           5.42151504698612   -7.35107971017587    6.18852476509874
N           6.51790387108734   -5.61339124741480    5.40087259410927
N           6.56954927719566   -6.69379404303969    6.14879690927753
C           7.69617837053760   -7.09631402201394    6.82124874496732
C           7.83088343882484   -8.20343345524082    7.61109889843219
C           9.12781741761941   -8.29660557229495    8.15122909246798
C           9.93517216527054   -7.27267478150427    7.76425244481783
S           9.14049569272193   -6.15550701554195    6.72659513927116
H           2.01160751311987    0.25496413136642   -1.51311242102670
H           1.25308450734265   -0.97323552772438   -0.47076282059990
H           2.59779502109622   -1.42571311152921   -1.55781147264618
H           4.75103243932046    0.34694330044933    1.88207878853369
H           5.61666475476828   -1.16905902097236    3.66304111765625
H           3.28876780072179   -4.36120185815126    2.05453658639911
H           2.41971476890932   -2.87498191560160    0.30173055109389
H           7.03238447135456   -8.90009529521312    7.78406285833612
H           9.44492796740666   -9.09277153382235    8.79964215775092
H          10.96000130914820   -7.10370104813068    8.02781621848992
