21
         -38.915698119607          0.000640336632
N           1.21087927488771    0.04288142869921   -0.16102437913790
C           2.57004463871828    0.09118992674735   -0.10718316413413
C           3.23860751737017    1.32317185135062   -0.05629816984582
C           4.60934194355364    1.37143755433397   -0.04362156071589
C           5.36518119322102    0.18996673726743   -0.08534908239478
C           4.69459490005412   -1.04544943747548   -0.14024641368007
C           3.32580889812547   -1.09170915150997   -0.14852242278720
N           6.72519828091769    0.34381516937117   -0.06834098959577
N           7.42773301309568   -0.70718380333655   -0.08723145773399
C           8.76586240991701   -0.65803551454389   -0.21943834755386
N           9.43110602310691   -0.06012953437475   -1.25473399457983
N          10.65250063806181   -0.41409388338135   -1.15895478458144
N           9.60628070186071   -1.39378177710704    0.51187963870144
N          10.75795850288163   -1.18876858004045   -0.10569125501607
H          11.62045198395051   -1.61093796874504    0.20431255721960
H           0.68384861646330    0.87584106090121    0.03290263637479
H           0.74721119844960   -0.83883790437224   -0.03150636025405
H           2.65790968588427    2.23387214096493   -0.02667108507173
H           5.13340240160026    2.31328457219306   -0.00360879511331
H           5.28447787866665   -1.94900753421033   -0.16728894356631
H           2.80978029921343   -2.04083535273157   -0.18674362653327
