27
         -53.646595326144          0.000609767623
C          -1.17036281098997   -0.18133665711864   -0.38094492254535
C          -0.33663023870355    0.91617416492392   -0.09347499034049
C           0.79620829778695    0.39015281465718    0.45591036346427
O           0.71797312055214   -0.94154600288764    0.52582927167519
C          -0.48311606081294   -1.30895422759070    0.01600348555557
C          -0.82992185209896   -2.70763367512084   -0.02727933149623
C           0.06792820036236   -3.66915159486899    0.45746142725662
C          -0.25252637148047   -5.00440938071944    0.42495899715547
C          -1.48449544052404   -5.42120853212588   -0.09911916624131
C          -2.38684166621197   -4.46038628445314   -0.58714897343808
C          -2.06288006392049   -3.12820109891234   -0.54947587984010
N          -1.70987528369862   -6.77521927969945   -0.09417984255027
N          -2.80008585996709   -7.18762650097351   -0.55325227615060
C          -3.15218557698651   -8.46169792297559   -0.73277065390140
N          -2.72861559542608   -9.21233775276849   -1.81366603608013
N          -3.42383117335836  -10.25888234237902   -1.83809896782871
N          -4.13959393125770   -9.07889206031561   -0.09914958483462
N          -4.27767955601151  -10.20697708250575   -0.81391754179798
C          -5.17066689917576  -11.15167952148161   -0.53223858548561
N          -5.93277049483715  -11.97141419467783   -0.29969020006783
H          -2.14504005903079   -0.13985702388645   -0.82106878263331
H          -0.54731589741045    1.95079786514271   -0.26914201267091
H           1.69303137934825    0.85025206981341    0.82177502059205
H           1.01578941404772   -3.34403310801388    0.85749561648535
H           0.42977423646747   -5.75395599016365    0.79405436585735
H          -3.33317000799609   -4.79443974616112   -0.98536100531821
H          -2.75946980866656   -2.39495693473756   -0.92404979482109
