27
         -52.819193717535          0.000743631304
C          -1.18982998323423   -0.27063844388207   -0.17733723558899
C          -0.50797714788439    0.94384370814289    0.00214939736250
C           0.79135982540878    0.76586327994649    0.36666116670235
S           1.20661493621472   -0.88801349626387    0.50195212130749
C          -0.40716387523744   -1.37719353651033    0.05349594290754
C          -0.76079114848726   -2.77122431661001   -0.02864674524844
C           0.15822123917878   -3.76365642088001    0.34255707496488
C          -0.17152985813625   -5.09482337916536    0.27721979991537
C          -1.44052861171282   -5.48500254778905   -0.17339845473789
C          -2.36610467953694   -4.49831462646714   -0.55261221333652
C          -2.03075216502661   -3.17076588472786   -0.47868826092286
N          -1.68104841387233   -6.83588701694967   -0.19868094484113
N          -2.79173401013926   -7.22228027971987   -0.63029112516050
C          -3.17689518484673   -8.48606746847557   -0.81509054211609
N          -2.83202240882355   -9.22155941421883   -1.93346376427498
N          -3.54798413874306  -10.25468411463584   -1.93723997689181
N          -4.13771609078662   -9.09772032988559   -0.13627198179670
N          -4.33965173395349  -10.20768641668282   -0.86417751001063
C          -5.23548539074962  -11.13965958052021   -0.55059335632972
N          -5.99722448765413  -11.95041358388248   -0.28646779629172
H          -2.22535585146395   -0.31926722646194   -0.46015796480655
H          -0.96137527927994    1.90926844868891   -0.13318633996034
H           1.53407558319826    1.51281605629241    0.56584217809457
H           1.13798639923107   -3.46825444159466    0.68850859144889
H           0.53221144904537   -5.86051308887510    0.56323991949867
H          -3.34199451810976   -4.80796283195730   -0.89557995666446
H          -2.75163445459748   -2.42525304691492   -0.77484202322326
