28
         -52.200113957452          0.000756785416
C          -1.19037828231419   -0.20142990892546   -0.02210459316087
N          -0.41416923393814    0.89897635761618    0.06998581555860
C           0.81534220185277    0.46447427180366    0.13746878165060
N           0.87474713952626   -0.88428710353478    0.10081703939833
H           1.70605252396668   -1.45090349000531    0.12169374315630
C          -0.41606391776242   -1.34785395463774   -0.00740989057175
C          -0.77759687439008   -2.74206627312836   -0.07414219505133
C           0.15958417067983   -3.75748854171442    0.15870553740841
C          -0.20533326271033   -5.08172058648915    0.09633124001225
C          -1.52261037666424   -5.43957826571965   -0.21513054049381
C          -2.46808103380963   -4.42683982939070   -0.44673778879394
C          -2.09925225077094   -3.10742480025510   -0.37296800785508
N          -1.79038097105036   -6.78724495249314   -0.24511337550662
N          -2.95202088935307   -7.12735627262863   -0.62307450674909
C          -3.21629856186897   -8.44523262641814   -0.76940326626195
N          -2.37264243842133   -9.39496144520218   -1.22569922930325
N          -3.06972191563440  -10.46825630836741   -1.37433556604089
N          -4.45812411156183   -8.93985410719327   -0.63030338033486
N          -4.29010311144270  -10.17837844863502   -1.00405834385001
N          -5.31915831060572  -11.06354040555111   -1.08558364208974
H          -2.25559407197168   -0.10831806341261   -0.08061223936138
H           1.68207764514074    1.09015523466021    0.21405875680076
H           1.18203349317175   -3.51010462487128    0.40607702448994
H           0.51122445332646   -5.86838494080409    0.27392033607208
H          -3.48300414660474   -4.71502578001724   -0.67479399971062
H          -2.82875467430693   -2.33375061288014   -0.55434679374999
H          -6.08162503084156  -10.77819511829377   -0.48168482351316
H          -4.99689816164080  -12.01013940351127   -0.92041609214936
