29
         -51.961111632904          0.000484107293
C          -1.22872021682272   -0.20779603321424   -0.07432776533416
N          -0.46485136750560    0.90025990581537    0.02873596613026
C           0.76478021927481    0.47737869526598    0.14461968815423
N           0.83652121614714   -0.87105174553145    0.12664904656016
H           1.67096414602888   -1.42974333574280    0.18842152671864
C          -0.44617123479675   -1.34745134654817   -0.01757930735933
C          -0.79412838609903   -2.74512769534576   -0.07723194599095
C           0.15509668335384   -3.75120090560388    0.14959975608920
C          -0.19811651726019   -5.07887096372527    0.10053703232337
C          -1.51399266453920   -5.45041639954915   -0.20076893965406
C          -2.47124232087232   -4.44819336981255   -0.42760909786656
C          -2.11506469678723   -3.12484235243808   -0.36046663559458
N          -1.77735167607259   -6.79840011077548   -0.20678561790131
N          -2.89760959929560   -7.16089642346737   -0.66964895819080
C          -3.15879958078359   -8.48219416554324   -0.78592360330252
N          -2.29622022998813   -9.43537111741485   -1.22945509595563
N          -2.98190135963218  -10.50627692391875   -1.37233939395014
N          -4.38907334984487   -8.98738558524543   -0.66255554311298
N          -4.21593246076109  -10.24070624613115   -1.01743647111657
C          -5.27649535672320  -11.19844553355882   -1.03887871403553
H          -2.29159576804994   -0.12349994934685   -0.17323179343173
H           1.62313421757730    1.11154399138801    0.24343535753053
H           1.17879167758873   -3.49423807470515    0.38111187794800
H           0.52843013475159   -5.85729823881925    0.27387049210066
H          -3.48678953455837   -4.74640045541904   -0.64002740719092
H          -2.85523245577011   -2.35963350024043   -0.53383648889762
H          -6.17650295601283  -10.70978027140130   -0.67325862603056
H          -5.02037253906160  -12.04550765133367   -0.40225707938519
H          -5.43171402348554  -11.55579419763714   -2.05741225925385
