33
         -61.961250787077          0.000819139774
C          -1.15537716084444   -0.37383926273421   -0.10045495974041
C          -0.40898914311211    0.81433243833183   -0.02080656867762
C           0.92593409609962    0.58646165074463    0.10489853021496
S           1.29766741228562   -1.08507847289058    0.13217311222198
C          -0.38632850072206   -1.50966701881674   -0.03260007822500
C          -0.80052250744135   -2.89035589132829   -0.07128535608730
C           0.12407946364993   -3.91879925971992    0.15759589774637
C          -0.26465780991298   -5.23590871446130    0.15189043219166
C          -1.59946258142119   -5.57604057453309   -0.10705600433928
C          -2.53009770514952   -4.55261686024723   -0.35034332340295
C          -2.13642872473519   -3.23849161264856   -0.32727541283505
N          -1.91062841570718   -6.91156569261133   -0.05262808809134
N          -3.06475756046755   -7.24755427505036   -0.44985446528579
C          -3.39671067965035   -8.55509206855445   -0.47594165401313
N          -4.67882393541195   -8.96574989967233   -0.28957117381977
N          -4.70315932878241  -10.21943106715711   -0.50476068889582
N          -2.61856051787709   -9.58270050303492   -0.82745964564859
N          -3.47632381098826  -10.58684813263326   -0.84395588223718
C          -3.09770258435731  -11.86672746073780   -1.17939347816975
C          -1.86016283107403  -12.34934306910657   -1.51041484042776
C          -2.05649923477566  -13.72845509588314   -1.74822988595559
C          -3.38228140189115  -13.96579786302369   -1.54253174618097
O          -4.02298243242362  -12.83647465570744   -1.19647347338267
H          -2.22530028766537   -0.38265586380868   -0.19341952283546
H          -0.84498806321486    1.79656470248114   -0.05429637864432
H           1.71948235621397    1.30292531546786    0.18520395317335
H           1.15563369237217   -3.66252502558956    0.35224674753841
H           0.44374459109514   -6.02916590803695    0.33207445992429
H          -3.55753917482278   -4.82740239408924   -0.53598203202258
H          -2.86420297497006   -2.46415765459026   -0.51337479462431
H          -0.95428370201057  -11.78426639961024   -1.56958834074308
H          -1.31042915467823  -14.44137765734191   -2.03125797804602
H          -3.97015138760933  -14.85926575340656   -1.60658736067891
