26
         -48.302580630724          0.000388296857
C          -1.14311932926460   -0.10531171791268   -0.12619705556980
C          -0.40764142575590    1.09119243700468   -0.07461582259695
C           0.92169211656524    0.88036987252181    0.12139596958178
S           1.30158557179562   -0.78391325992313    0.25003780807883
C          -0.37089412318451   -1.23023485755672    0.03252776157282
C          -0.77212997188984   -2.61548849187021    0.03572351905970
C           0.16290038752535   -3.62773944547640    0.29183456750092
C          -0.20894207771000   -4.95005592477144    0.30381236291962
C          -1.53739061718756   -5.31092055467323    0.04362303777560
C          -2.48092400096925   -4.30374699672772   -0.21456640765809
C          -2.10361977017252   -2.98455061340794   -0.21457251366281
N          -1.81809375344207   -6.65637310277628    0.08116652296542
N          -2.98320086075103   -7.00597857182981   -0.25186350272568
C          -3.31642156425217   -8.30499845118389   -0.37348840365101
N          -2.66013766837794   -9.21328151460186   -1.15691686415358
N          -3.39084450477150  -10.25651972520039   -1.19744098613298
N          -4.47120056161063   -8.81271097154579    0.06173745576088
N          -4.45171686608045  -10.02550326413835   -0.46173841367384
H          -5.19926118656169  -10.68872635547331   -0.31927786017394
H          -2.20770665082061   -0.12694827570247   -0.27072493112243
H          -0.84683019528482    2.06717774319233   -0.17882842465991
H           1.70640151141315    1.60658028212340    0.19917686632791
H           1.19037987901268   -3.35580343147566    0.48636630735169
H           0.50849865454219   -5.73150528345786    0.49863437962493
H          -3.50429976846781   -4.59244217841809   -0.40207248136055
H          -2.84093322429927   -2.22287734671939   -0.41457289137816
