29
         -52.308601891301          0.000624532544
C          -1.16295779962987   -0.16101743764730   -0.28812832082552
C          -0.30668645872921    0.91714886007128    0.01233507639335
C           0.84617568787082    0.35889425337928    0.47903794348885
O           0.75985365728077   -0.97568745315830    0.48649589020841
C          -0.46732587720787   -1.30962851246019    0.01842903065826
C          -0.82919415215525   -2.70441682622525   -0.07501795676392
C           0.08579227669462   -3.69411887343104    0.30662756209572
C          -0.25219275128806   -5.02434015500296    0.23611634175672
C          -1.51493814279862   -5.40777867701647   -0.23418555426051
C          -2.43384419962939   -4.41841825587290   -0.62000969805914
C          -2.09505065843521   -3.09069981055082   -0.53762746957124
N          -1.76794707243436   -6.75930089016972   -0.24843205129135
N          -2.85023808906323   -7.13463476164716   -0.78355057411757
C          -3.09614832611914   -8.45727890182734   -0.91527950359469
N          -2.22161221800047   -9.38907730154245   -1.38024470853064
N          -2.89083974601489  -10.46983056999919   -1.53183043225078
N          -4.31713435645143   -8.98359104347911   -0.79107991056048
N          -4.12534264087010  -10.23029835654678   -1.16500049672702
C          -5.17030853531837  -11.20496735013968   -1.18820668892198
H          -2.15696842422568   -0.09203368316721   -0.67879866230937
H          -0.51768800129799    1.96047386878117   -0.10167340952414
H           1.76343064653334    0.79421227228583    0.82380042672594
H           1.06024230709611   -3.39614738651986    0.66205636465568
H           0.44339481483907   -5.79615293006933    0.52621336982707
H          -3.40797690958595   -4.72869924805293   -0.96690204880957
H          -2.80756930993570   -2.33511156807066   -0.82977979305920
H          -6.04709201768105  -10.76742725060910   -0.71659152955401
H          -4.85045686061839  -12.09470145837028   -0.64632005288919
H          -5.40134684282448  -11.48112055294206   -2.21802314418983
