26
         -49.131017521543          0.000364883471
H           1.41469761036475    0.31720977465060    0.01048307921626
C           2.48476902577668    0.19575769878801   -0.07078065396254
C           3.33179154896601    1.06205035169252    0.60583979566974
C           4.69936850254528    0.90279591936363    0.51679922385606
C           5.23135273578465   -0.11884241620003   -0.27777783124230
C           4.37130194505401   -0.99070722092621   -0.95902277769177
C           3.00672224625420   -0.83126093622148   -0.84624114539468
N           6.60628777752602   -0.22196607335390   -0.29270863441214
N           7.11435502550581   -0.94931279131298   -1.18853533648198
C           8.45746440161016   -1.02301004594196   -1.30546786810432
N           9.07923763785586   -2.15283119129219   -1.73194783286415
N          10.30948842486240   -1.86497965245135   -1.88467975603379
N           9.32697373763149   -0.01370431013530   -1.20695460895046
N          10.45578020939368   -0.58241122872075   -1.58995147301748
C          11.63869789150766    0.11720100061929   -1.66564911876525
C          11.89690548402460    1.42691001624849   -1.36222733668191
C          13.27480041412467    1.59890760962867   -1.62413661812044
C          13.73352645911379    0.39188452914919   -2.05916192429104
O          12.74282320037516   -0.51520028739230   -2.08752620253346
H           2.91934300843480    1.85787651714174    1.20811613524011
H           5.37964699046205    1.56362297524125    1.03120935862071
H           4.80301325008185   -1.78732623817521   -1.54621062407242
H           2.34077112716924   -1.50708232413432   -1.36242484017879
H          11.19125854725463    2.14646865940024   -1.00484229385377
H          13.84151475880766    2.49844058979949   -1.50279453377414
H          14.70529803951328    0.06142907453504   -2.36642618217624
