22
         -43.433867065409          0.000861652259
N           1.35141485946183   -0.16440521065396   -0.08524789814658
C           2.70266954716620   -0.08632993694612   -0.08258000468842
C           3.34707432892432    1.15170798370065    0.07665407704852
C           4.71488153435433    1.22998408887102    0.06752491474311
C           5.49482979600322    0.07415445467762   -0.10381326795704
C           4.84933110345750   -1.16708663356926   -0.26446313756140
C           3.48348989068573   -1.24387608825722   -0.25246109913071
N           6.84724384963481    0.25769683429387   -0.09941595969158
N           7.58300797449228   -0.74847317458907   -0.24739846663446
C           8.91166492407285   -0.76693316759681   -0.34315804545874
N           9.57711138448445   -0.62051720887833   -1.54647456973451
N          10.77710489905979   -0.94228219481672   -1.35453236727996
N           9.74283859061038   -1.20162212871464    0.59605381957170
N          10.90489902600644   -1.29648454939223   -0.07262317894449
C          12.04135293137470   -1.70312876124617    0.48300907715517
N          13.02595421560248   -2.04910597685861    0.95074665496870
H           0.79448122029593    0.65407280944325    0.07919635521967
H           0.89359997247723   -1.05476372185502   -0.15485957729585
H           2.74798002171943    2.04113840695616    0.20654802248197
H           5.21977861413550    2.17525645495054    0.18918564810049
H           5.45597715387467   -2.05071854610132   -0.39322111963419
H           2.98708416210610   -2.19606373341683   -0.37365987713243
