26
         -48.782421313904          0.000449141671
C          -1.16281007693207   -0.05007108576693   -0.15840618431702
N          -0.38764791468997    1.05406856280946   -0.14370594921655
C           0.84135543867775    0.62715020679642   -0.03231760876611
N           0.90177389305961   -0.72014134489720    0.03308416507606
H           1.73334606185280   -1.28164254202367    0.10876803868802
C          -0.38804593661677   -1.19207830223729   -0.04997461145657
C          -0.74983264868939   -2.58656138020078   -0.01829550372445
C           0.19239779032350   -3.58746246988782    0.25578035315863
C          -0.17356511979260   -4.91257897969481    0.28163892271632
C          -1.49773296091889   -5.28622825820394    0.02266240109255
C          -2.44883141979119   -4.28858375655743   -0.24758751895020
C          -2.07847483870223   -2.96796997796185   -0.26347045426200
N          -1.76420417518675   -6.63442087219214    0.06845813711249
N          -2.93646634495197   -6.99401615877119   -0.22952729395099
C          -3.25286718631495   -8.29819188893942   -0.34533169021710
N          -2.58246985005331   -9.20670927217617   -1.11593858391925
N          -3.29931969220977  -10.25983854115309   -1.14668947706203
N          -4.40233317860900   -8.81605437013767    0.09241883367819
N          -4.36552410283714  -10.03367828759888   -0.41623991005224
H          -5.10448475464385  -10.70527422099001   -0.26825421212913
H          -2.22727858956992    0.03824941252456   -0.23513883897952
H           1.70681600368258    1.25817038234497    0.00416803262869
H           1.22070536214020   -3.32773682301114    0.46205487054663
H           0.54761431875634   -5.68737242276733    0.49010250921123
H          -3.46932267638361   -4.58694792181125   -0.43406114863355
H          -2.81252740159963   -2.20629968749543   -0.47392727827252
