28
         -51.750399099676          0.000774304673
N           1.50921453095942    0.26004016369756   -0.07636423757999
C           2.85432130712658    0.05580904381641   -0.05735377732938
C           3.64703542927678    0.61628051752512    0.95525063570047
C           5.00821466061115    0.44711827678195    0.94810767807913
C           5.63040587134954   -0.28940444833423   -0.07176356037445
C           4.83474604192346   -0.85109361335249   -1.08790188801631
C           3.47605741893317   -0.68150070287566   -1.07869510551165
N           6.99240835639012   -0.39284993498845    0.00170156569548
N           7.56733746402043   -1.10168429794202   -0.87635132308439
C           8.90930030518950   -1.13595332375234   -0.96275033654106
N           9.57694696260147   -2.27565608388994   -1.28529689704712
N          10.79755218898223   -1.95298372689591   -1.46659200316891
N           9.74013354993892   -0.08875133246661   -0.95935920500907
N          10.88892352158731   -0.64608952018475   -1.28962379617102
C          12.05492855008678    0.06069660489226   -1.44104923244110
C          13.28429383863439   -0.43905373260266   -1.76652964851153
C          14.25469481651879    0.57963683652887   -1.83276173241056
C          13.74685038060167    1.81114823043762   -1.55966360012353
S          12.06283033799460    1.77183730820879   -1.20961840921341
H           1.06162881215862    0.65722595465926    0.73084410853340
H           0.94026557633620   -0.27550077022385   -0.70811604337436
H           3.16940039224615    1.18399746200753    1.74111219413682
H           5.62610489349815    0.87293640326175    1.72331020668839
H           5.32233363399774   -1.41913397820855   -1.86573034516496
H           2.86469261972894   -1.11299823506066   -1.85940582983571
H          13.46371610446053   -1.48251948028026   -1.94523657256545
H          15.28669761884832    0.40160222907887   -2.07439813894470
H          14.26248481599814    2.75042415016250   -1.54287470641383
