33
         -61.964759987573          0.000752465537
C          -1.14732048067346   -0.24752090235312   -0.34381145913963
C          -0.25197407535458    0.81962031028456   -0.13138332457799
C           0.91663860428636    0.24975759838223    0.27951144390051
O           0.80391244001322   -1.08160218093450    0.33420118702690
C          -0.45721319625479   -1.40201127789341   -0.04557024071316
C          -0.85203742255827   -2.79020190901902   -0.07208098860876
C           0.06213298920534   -3.78636706478785    0.29564743513147
C          -0.30620897766209   -5.11014508414332    0.29195327618463
C          -1.60146363036570   -5.48126229672646   -0.09360900015639
C          -2.51864894610446   -4.48552477652651   -0.46949985189607
C          -2.14844022718341   -3.16405319848088   -0.45429672349157
N          -1.88539744295027   -6.82428482980536   -0.04055406705599
N          -3.01898358894167   -7.18749150585842   -0.47211259442644
C          -3.31393083439178   -8.50271683912271   -0.52183421509055
N          -4.58344008846787   -8.95383012493336   -0.35711091044614
N          -4.56684215613374  -10.20618340119634   -0.59505057026949
N          -2.50263582249390   -9.50128836609195   -0.88362232246533
N          -3.32615738986383  -10.52545050703741   -0.92693534841780
C          -2.93733881759019  -11.79331693404473   -1.27933461247542
C          -3.72145432733699  -12.91178514246045   -1.32436740871253
C          -2.98301558053889  -14.04310654096975   -1.72097994787978
C          -1.67474510556170  -13.76068929547805   -1.96386177884772
S          -1.29554630136642  -12.10221284774212   -1.71543816951051
H          -2.16299278046450   -0.16814258687048   -0.67185757532681
H          -0.44807337895452    1.86359353298859   -0.26457723773522
H           1.86273290497136    0.67447372341162    0.55222570624584
H           1.05999252971873   -3.49768063869373    0.58820770873923
H           0.38821300526028   -5.88601336218194    0.57432129955398
H          -3.51595634686475   -4.78667818814839   -0.75234872709689
H          -2.85964570308380   -2.40354556619876   -0.73654860302077
H          -4.76748047534636  -12.90443262218563   -1.08219760230926
H          -3.40824471592113  -15.02497173003115   -1.82082899432088
H          -0.90130466102612  -14.43266544515095   -2.27776578279200
