26
         -48.788860011815          0.000783764589
H           1.46913805359042    0.27147260749905    0.17473425940056
C           2.53942344829645    0.15320593420822    0.09463762577279
C           3.38302020360007    1.02195693650134    0.77204402035629
C           4.75107074815395    0.86739222244450    0.68221821490311
C           5.28686696522602   -0.15456752551806   -0.10940185422670
C           4.42956607074331   -1.02918571975805   -0.79087359344734
C           3.06486386118543   -0.87217105946656   -0.68078716556229
N           6.66321893429349   -0.24776571118322   -0.12644905111680
N           7.16947675973014   -1.02842751333839   -0.97910791963988
C           8.51233235659475   -1.09819044374829   -1.10009171623318
N           9.14089515649794   -2.24220030698026   -1.46734205379940
N          10.37202489873714   -1.95393055405115   -1.63608693046312
N           9.37620330655558   -0.07809499221924   -1.05441524930660
N          10.50814633750185   -0.66081067336244   -1.40854922390734
C          11.68505948605033    0.03908312385575   -1.51730125976175
C          12.95854493625047   -0.32828152181647   -1.88235451811357
N          13.76530936187075    0.75477196800971   -1.81467352091210
C          13.02002434032829    1.75141216744024   -1.42319909626088
N          11.73577170287466    1.37369034024645   -1.22428029594232
H          10.94286954467962    1.91955763034718   -0.92415261284278
H           2.96806048909464    1.81589083318746    1.37504953365805
H           5.42818288203054    1.53012934331092    1.19800728147278
H           4.86326108651216   -1.82407239045330   -1.37877549710388
H           2.40115940872938   -1.54895392065164   -1.19825762799734
H          13.31913883390189   -1.29032539744095   -2.17991858486101
H          13.36899082697115    2.75275462293743   -1.27378316406518
