28
         -52.186168922234          0.000496364066
C          -1.16969388348794   -0.17309287266814   -0.25210885904157
C          -0.36935444134878    0.90798044707180    0.00209450432470
C           0.84994429462739    0.35139816807889    0.43342679342281
N           0.79273868932068   -0.95826481193386    0.43954388453633
N          -0.43673980306539   -1.28617424560704    0.02254836451772
C          -0.80703035662387   -2.62244469194939   -0.07989772342572
C           0.13449837021723   -3.60271619172828    0.24639613679423
C          -0.19507741541896   -4.93441553144059    0.16088852432376
C          -1.47518402561365   -5.32114411956226   -0.25709768189366
C          -2.41534793010242   -4.33241843803970   -0.58525150088486
C          -2.08676381487020   -3.00077715597851   -0.49623022159222
N          -1.71201997946560   -6.67557724118849   -0.31112287376241
N          -2.86939024692710   -7.03375929620562   -0.68263096265426
C          -3.10552001380711   -8.35169507218245   -0.86969582823197
N          -2.25415405445309   -9.26254644986570   -1.38695796593531
N          -2.92955589441409  -10.34652604090370   -1.55418535417891
N          -4.33039610086861   -8.88199254408680   -0.71186476807946
N          -4.14423707001580  -10.10143912020115   -1.13590819503403
N          -5.15338277007425  -11.00901781638080   -1.21848273568989
H          -2.18023066176414   -0.21514260377769   -0.60057048817923
H          -0.61423834237654    1.94452574687641   -0.10322051016716
H           1.74653578236217    0.85661191931151    0.73245099081816
H           1.11388251389735   -3.28294990139602    0.56389572373906
H           0.51937196407992   -5.70374654316694    0.40691852151443
H          -3.39903322047864   -4.64337207428037   -0.90249339349535
H          -2.82512751081466   -2.25639606013589   -0.74959747630384
H          -5.89859581378198  -10.77270576711342   -0.57355419737505
H          -4.80099826473170  -11.95323169154529   -1.11067270806625
