19
         -35.472413836153          0.000762987911
H           1.00200042517461   -0.03659296250047   -0.15897893358927
C           2.08112976661969    0.00371791257539   -0.14514919369726
C           2.72712983743628    1.23153573753605   -0.13779039992761
C           4.10576886833602    1.28759924074243   -0.10731488023815
C           4.85091285386667    0.10373279263820   -0.10315546911433
C           4.19304676745957   -1.13341581049730   -0.11251360338806
C           2.81545089282319   -1.17503569411669   -0.12898521021952
N           6.22258670314847    0.25367793903617   -0.04517500030895
N           6.91646379474161   -0.77732801535997   -0.23341005331950
C           8.26171487066887   -0.71758570281770   -0.29950551218688
N           8.97219843272225    0.07468279974358   -1.15681584283102
N          10.18657728720190   -0.30551373920870   -1.08367854108985
N           9.06615627337973   -1.59881896492748    0.29735600447951
N          10.24364720832530   -1.28166702423081   -0.21003300975119
H          11.09137416703558   -1.76750170196172    0.04389988520633
H           2.15020466214423    2.14418704641528   -0.15038667001689
H           4.63239499563492    2.22902376660357   -0.10291370942697
H           4.78559548642713   -2.03559167935381   -0.08896146820728
H           2.30476670685433   -2.12681594031590   -0.12832839237326
