33
         -60.426149896345          0.000618165273
C           0.83338182029747   -0.32156499642045    0.12128484110059
C           0.50961194270375    1.04961712083078    0.12675210642516
C          -0.85058923069510    1.11490977963043    0.05330323959057
O          -1.38764078165719   -0.11240103566037    0.00175660255070
C          -0.36383975338315   -0.99895605683615    0.04305509346000
C          -0.64762094875296   -2.39659672947006   -0.00328821743126
S           0.62221202815081   -3.56990260980475    0.05894520957913
C          -0.53812802501874   -4.87307183239143   -0.08036493044194
C          -1.83322324928413   -4.37920941167951   -0.15378800041530
C          -1.89154891625433   -2.99340312765695   -0.10488004063908
N          -0.05450122953657   -6.12141050754118   -0.03035804222582
N          -0.86647864452864   -7.08554668181564   -0.29614239560082
C          -0.36144387427164   -8.33578424893880   -0.14425840583517
C          -1.07663209471025   -9.46039785641290   -0.48474998676012
C           0.91037537307263   -8.79231659732871    0.38964259331156
C           2.03091005442752   -8.14586893909493    0.89654324440929
C           3.08805791893135   -8.92102404682674    1.33317832270096
C           3.04588695267692  -10.31264712018212    1.27427772948413
C           1.94098704173612  -10.97751354112535    0.77449004312308
C           0.88560764207862  -10.19720251701160    0.33776684546937
N          -0.33880264328384  -10.58619170152870   -0.20536183518855
C          -0.71796475714264  -11.83348757328364   -0.41597662640053
N          -1.03695513189599  -12.91966987812806   -0.59508426139345
H           1.80716666483056   -0.76421580477400    0.16618363574282
H           1.19146289438597    1.87328589402823    0.17807198970177
H          -1.52732354464404    1.94609102916046    0.03148545061791
H          -2.68160765994758   -5.03503940067958   -0.22805127410627
H          -2.79925285897632   -2.41819474517668   -0.14667586089234
H          -2.05601284496398   -9.53435270605909   -0.91573116462580
H           2.06112509769437   -7.06932105360824    0.93997351383632
H           3.96986434049555   -8.44070482509976    1.73008450953004
H           3.89130973114201  -10.88414433167132    1.62585592901480
H           1.89785668632698  -12.05509394743005    0.72617014231192
