22
         -47.204029211781          0.000908610613
H           1.07931026252259   -0.26233849544269   -1.03589349297833
C           2.13158640346577   -0.17443498102614   -0.84825898509897
S           2.89000764005304    1.34641936124417   -1.00380241361125
C           4.43104390656806    0.64413070651530   -0.56709197140349
C           4.30580726374278   -0.71491556837991   -0.31797951459630
C           2.99788415494031   -1.17012933734929   -0.47826525463972
N           5.48157810579477    1.47649231897097   -0.51095995490119
N           6.62672271972311    0.95687908925087   -0.23927658924404
C           7.63962638502625    1.85018422700742   -0.13913410955537
N           8.88023113680271    1.42347198844362    0.04575489142719
C           7.62589928112394    3.29389534785475   -0.16066194102059
C           6.74092566778294    4.35985042469729   -0.29850448365767
N           7.19024033679861    5.59844394776700   -0.25111856169455
C           8.49012731537802    5.80801462348936   -0.06598303588491
N           9.43848169082130    4.90479431588629    0.08262376092230
C           8.98526533282038    3.66119206170375    0.03025621667786
N           9.64318324681164    2.48819621066436    0.13832353705240
F          10.97706763192531    2.32047341927613    0.32516918785038
H           5.14906454096954   -1.31607714268545   -0.03098239618254
H           2.69341714783753   -2.19099315664852   -0.33074614632537
H           5.67949831531225    4.21898238445178   -0.44778267134806
H           8.80732151377853    6.84095825430932   -0.03224607178770
