28
         -49.730356339123          0.000180178730
C           0.85203179899924   -0.36763256874055    0.00013037658274
C           0.53967657865649    1.00639622836752   -0.01328371020507
C          -0.82151828041616    1.08223210437401   -0.01236987425382
O          -1.37003601306490   -0.14175757721237    0.00088762695506
C          -0.35226835958237   -1.03566713506680    0.00862522755617
C          -0.64315826863951   -2.43360489042161    0.02218131128180
S           0.62914825704385   -3.60569844657186    0.02455796531686
C          -0.53547849288388   -4.91094134101589    0.04272965082198
C          -1.83182949888103   -4.41990619548808    0.04538916072505
C          -1.88958588612048   -3.03187942052678    0.03324362148381
N          -0.03743896122538   -6.15855644276040    0.03745482685064
N          -0.88342858182398   -7.12709381534781    0.07203742362655
C          -0.32551399788939   -8.36601593503828    0.04820555473192
C           1.04065057262986   -8.76667143984246   -0.01798993597742
C           0.99234942005910  -10.13192839999244   -0.01590837097082
N          -1.11581147930249   -9.44257530195169    0.08626314276096
N          -0.31597324022387  -10.48694552258869    0.04750126439649
C          -0.84968439458318  -11.81701614969584    0.07254465004546
H           1.82291109143367   -0.81867261104515    0.00343804989243
H           1.22967300422413    1.82483084922980   -0.02262391670704
H          -1.49221087624767    1.91850561971163   -0.02048303951317
H          -2.68020824933620   -5.07990177014073    0.05435838715158
H          -2.79935932010409   -2.45835864528800    0.03285256108937
H           1.89157731989796   -8.12036818493813   -0.05919589813925
H           1.76885731405719  -10.87011251413122   -0.05387069238515
H          -1.93324027236441  -11.73746890542959    0.12552062731202
H          -0.48106293776047  -12.36225114190295    0.94367100388419
H          -0.56779824655164  -12.36078044654547   -0.83128699431331
