31
         -59.315533179240          0.000770301152
N           1.09262429867744   -0.38141112119801   -1.25258095428717
C           2.41733168492555   -0.19924354778767   -1.01278795133727
S           3.09687979687041    1.38900457084760   -0.92592977224196
C           4.71060723620294    0.71220356102844   -0.70514284414820
C           4.65805329300562   -0.67473058055199   -0.70297305931903
C           3.37933486802735   -1.18519822399554   -0.87518572329736
N           5.70927189132016    1.58034954318923   -0.57935796243335
N           6.90191783888800    1.10133632275556   -0.41483204989672
C           7.86095884617550    2.04472242938022   -0.29058218305563
N           9.12832385250471    1.69122350563246   -0.15700384885590
C           7.75750583950820    3.48621131493365   -0.26963837655226
C           6.80330549281407    4.49040697480248   -0.35512756403188
N           7.17166850585181    5.75847656487444   -0.28989900787658
C           8.46083515532082    6.03952390729332   -0.14041119185010
N           9.46928106181521    5.19465252305937   -0.04366935114219
C           9.09653617259155    3.92144758482124   -0.11164261793119
N           9.87157051688733    2.80080400389107   -0.05093576584443
C          11.23878267524754    2.72447758906351    0.08563415033801
C          12.12913508170478    3.75363371885939    0.20367248683596
C          13.45340934485776    3.28402826863275    0.31894894653451
C          13.53940039184599    1.92862399884925    0.28594571654484
S          12.00220686860865    1.17145734413861    0.11409134373493
H           0.47918159085521    0.40898722414593   -1.14923555788550
H           0.70110739853872   -1.28831068181785   -1.05963892892489
H           5.55104478663099   -1.25912517716989   -0.57664881064130
H           3.14261401049788   -2.23340418176292   -0.90308979286063
H           5.74886530102416    4.28443217495900   -0.47673664233310
H           8.71596584201898    7.08957368769208   -0.09053620573677
H          11.83338487393052    4.78589323527743    0.20569025529725
H          14.30446734413213    3.93265730525429    0.42118451736035
H          14.41770813871577    1.31847616090087    0.35288874583777
