26
         -46.761754780602          0.000408813398
N           1.10501524610912   -0.29576885910894   -0.08908061566295
C           2.24487026784488   -0.15168348319010   -0.08153548307815
C           3.62913479800397    0.01165169164119   -0.07073807675408
S           4.34898220214570    1.59067247308247   -0.06730246602976
C           5.94090365801084    0.88244210987528   -0.05362170852032
C           5.88136711042647   -0.50318377143616   -0.05217409059267
C           4.58002610633343   -0.99096936004754   -0.06184525014915
N           6.97740976417243    1.74383626861590   -0.04680218792081
N           8.15631454851939    1.21832875357522   -0.03673907210471
C           9.19227775079370    2.08228249146993   -0.03029618216837
C           9.20523203429219    3.47556673116610   -0.03331520641178
C          10.57218156450281    1.66644965351663   -0.01855046568265
C          11.20511848926859    0.42900627545968   -0.01080287739973
C          12.58467367832333    0.40149824370143    0.00006968278259
C          13.33687726375814    1.57722795299337    0.00334013023651
C          12.73056301464791    2.81759757524078   -0.00418942148049
C          11.34411735921990    2.84802630129558   -0.01514076810106
N          10.47914177247165    3.91739183929462   -0.02432742010557
H          10.76022962103962    4.88512744500724   -0.02443138619789
H           6.77028858279224   -1.10693951727553   -0.04432385351273
H           4.31827766059657   -2.03475838164386   -0.06260623462280
H           8.36620070807495    4.14422868670365   -0.04145329974239
H          10.62201814760484   -0.47789529231866   -0.01333851640312
H          13.09997204478515   -0.54733021660026    0.00622434751385
H          14.41456013451043    1.51379507984929    0.01193496568935
H          13.31115647175177    3.72805930913259   -0.00166454358113
