34
         -58.987340911979          0.000561002525
N           1.03238162131119   -0.36011295845222   -1.18020951993063
C           2.36820359458188   -0.18889205412332   -0.94029060374521
S           3.05775080955585    1.39780966096506   -0.85370570436791
C           4.67050113669738    0.71556305369720   -0.65350576545997
C           4.61208194224167   -0.66509065786489   -0.65605144109970
C           3.32345927018173   -1.17318399028437   -0.81483983601793
N           5.67209402138969    1.59186156958731   -0.52519691338426
N           6.86759139601450    1.11766300605912   -0.39825684535256
C           7.84846815334007    2.04318604323206   -0.25121897642389
C           9.18054276430088    1.69491857866607   -0.16610025706774
C           7.79989847182785    3.48442320858297   -0.13599609676731
C           6.76289518677107    4.41048171824814   -0.12915662902016
C           7.07843057999978    5.74382301996306    0.03280628334270
C           8.39879151078600    6.16101018625736    0.19906105493293
C           9.44490114542556    5.25950238527627    0.19368667104496
C           9.13374788105935    3.92054560459227    0.01112221664926
N           9.95873629176786    2.80840675190902   -0.01905611165082
C          11.33693774971363    2.80452864629450    0.07335828053768
C          12.30210674972082    3.67303106501228   -0.37474318749730
N          13.53094386057628    3.20978819129305   -0.03355350069451
C          13.33809409195688    2.09032697434410    0.59908607562411
N          12.01780357488164    1.78805998196651    0.69819324214256
H          11.60154752179445    0.98907329175060    1.14774310819638
H           0.43857110984499    0.43675937257532   -1.01975670950008
H           0.64060383012477   -1.25019973526475   -0.91695262240290
H           5.49928116981669   -1.26110779897038   -0.54195468622914
H           3.08581846213128   -2.22187332165745   -0.84236045976225
H           9.61090681032842    0.71476290695148   -0.24093172327834
H           5.74405318740072    4.07820573902395   -0.24590116939941
H           6.29035904097522    6.48227271511250    0.03954212726084
H           8.60796509041200    7.21133867919535    0.33826155947064
H          10.46300566708015    5.58434717503951    0.33965415997743
H          12.18826007543692    4.57959430004774   -0.93193826846838
H          14.11276623055435    1.46718669097375    0.99718224834112
