25
         -45.730090475075          0.000626739934
H           1.04152002089408   -0.12859114448364   -0.02059105718380
C           2.11245262154938   -0.07296349518024   -0.01789307912387
S           2.87537730060119    1.45741950643998   -0.02520431509328
C           4.45027394208598    0.69728543868802   -0.01595626379131
C           4.33359514343468   -0.68090330428335   -0.00774080879365
C           3.00378158772054   -1.10994214414275   -0.00887267804971
N           5.51484762959857    1.52102477502074   -0.01703164607847
N           6.67775610739113    0.97502268805714   -0.01023771395228
C           7.71379333794722    1.85404079372238   -0.01049766741845
C           7.71141710359780    3.28409814932722   -0.01778400732690
C           9.02795888799874    3.62818971572626   -0.01330407445854
N           8.96374419973767    1.39540286736648   -0.00231339744507
N           9.74540515183438    2.46494386705121   -0.00399327517071
C          11.11640342436446    2.33739705414645    0.00394180403812
C          11.83373556429390    1.17525327540933    0.01276540503755
C          13.22405372039464    1.40983609575388    0.01981123021936
C          13.54083821613197    2.72946065342562    0.01634155204188
S          12.14485480251206    3.73619511454349    0.00423001534526
H           5.19714959845383   -1.32050574272342   -0.00123209699592
H           2.70536407351165   -2.14333673343157   -0.00324355415816
H           6.84790855337572    3.91463092878905   -0.02511958344443
H           9.52002213922005    4.58035770222995   -0.01578866752454
H          11.36597508707477    0.20916123310953    0.01397105174889
H          13.95837843304282    0.62497588568008    0.02721370137196
H          14.50954335323278    3.18712681975808    0.02010912620604
