31
         -60.151734803954          0.000388455098
H           0.98679962267676    0.02628868711980   -0.04972983634597
C           2.05838272718994    0.06665576677277   -0.03597702102015
S           2.84568737055330    1.58387915724617   -0.02109823684726
C           4.40774467585315    0.79899871909932   -0.00567551800476
C           4.26724794400318   -0.57982389899927   -0.01136036669467
C           2.93223567513067   -0.98684868331428   -0.02833765653977
N           5.48353234783126    1.60188725629725    0.00975782382714
N           6.63418499047380    1.02557773586566    0.01310053646564
C           7.71872246621096    1.83303732755035    0.02425448046782
N           7.74134589342536    3.16040277395379    0.01988527811321
C           9.06159680082136    1.32501989096129    0.03608839920106
C           9.74810097223527    0.11464631545767    0.03830442015798
N          11.06094285822212    0.09498944792984    0.04547104381160
C          11.72763504657881    1.26688804190995    0.05228252006144
N          13.07001070527118    1.18444323447924    0.09302950194627
H          13.60605719912524    2.02747447994233    0.00035491402164
H          13.49978167626522    0.28331991762572   -0.00599851019176
N          11.19467624759010    2.48940844409868    0.04417519150086
C           9.87274087007932    2.48405103613852    0.03849874527669
N           9.02168117129773    3.55475473430907    0.02791940760026
C           9.33525046729323    4.89600142210639    0.02340389810214
C           8.50588109865736    5.98559578241726    0.00990156042521
C           9.36808897667362    7.10630246384165    0.01130977036884
C          10.63640292480804    6.61237905897412    0.02550607520463
O          10.62476548940723    5.26513725465021    0.03264011337052
H           5.11866332586319   -1.23546451332996   -0.00248431765759
H           2.61676606799603   -2.01520985667926   -0.03519363183640
H           9.24484942167375   -0.84238432961846    0.03065215330686
H           7.43717271369485    5.96548890280818    0.00051593376848
H           9.07861203691481    8.13670340247950    0.00290710253001
H          11.59549021618317    7.08961002790648    0.03174622561004
