25
         -49.951934637383          0.000676354214
F           0.87753166871338   -0.23013251557988    0.00762380434799
C           2.19791942653090   -0.06264278943141    0.02860281468129
S           2.86497708835848    1.52408600681979    0.02962048364871
C           4.47389972377634    0.82793745319431    0.06088774669265
C           4.42846327842212   -0.55269042111634    0.06895719545729
C           3.12656956679168   -1.06346832983446    0.05048250028086
N           5.49781871530347    1.70155098081166    0.07235857616644
N           6.68567547211728    1.21218849610463    0.09538493434593
C           7.67734467337831    2.13907782934368    0.10576959174069
C           7.60683081150790    3.56751843080796    0.09360027336009
C           8.90564341538107    3.97351614223572    0.11326391480309
N           8.94857455671153    1.74104443889556    0.13107751324141
N           9.67699923914127    2.84559838857901    0.13548591670711
C          11.05265835775081    2.78461471253652    0.16041517152492
C          11.82473051159444    1.65801051328936    0.18087767121131
C          13.20169743791777    1.95955912320518    0.20397143062208
C          13.45419847954351    3.29327425500971    0.20084490008505
S          12.01229072617405    4.23147285297154    0.16942513422413
H           5.32518367461545   -1.14432571016757    0.08771110364013
H           2.87028074675439   -2.10683470075710    0.05285499052262
H           6.71552043067724    4.15758334813716    0.07335936926736
H           9.35006229348251    4.94879843820468    0.11351979989739
H          11.40474395632511    0.67019987428456    0.17901747044857
H          13.97325767393703    1.21152884800209    0.22216680581991
H          14.40006807509395    3.79630433445364    0.21501088726292
