32
         -64.330518902404          0.000871427951
N           1.10342776422534   -0.22233486176733   -0.23258756391592
C           2.24298038199144   -0.08446017053085   -0.20127532505748
C           3.63001782397862    0.06331919443379   -0.16401053913778
S           4.37133095488532    1.62796292568709   -0.15819905980297
C           5.95163913993919    0.89473457831740   -0.10994092927496
C           5.86988901102442   -0.49309296701218   -0.09881795819745
C           4.56314403435062   -0.95854914197973   -0.12932626633814
N           6.99797221497177    1.73647835676074   -0.09178156884555
N           8.16755848351875    1.19348239499699   -0.06366827149846
C           9.22375439069902    2.02856668548497   -0.04741077917461
N           9.19920948359566    3.36088955482871   -0.05070639761129
C          10.58479949615487    1.57359710099602   -0.02657677930275
C          11.31932974082487    0.38978979564339   -0.01531161985819
N          12.62990476951869    0.42426102763787   -0.00068157896094
C          13.25339332078822    1.62114219263133    0.00347995494157
N          14.59472354821481    1.58607889299358    0.01976895257169
H          15.11116599270114    2.44500465284170    0.00522685814343
H          15.05788411129243    0.69664489547671    0.00805611915336
N          12.67179598501078    2.82315276493285   -0.00438285938490
C          11.35090206005247    2.76151677814868   -0.01908998261558
N          10.46069320048481    3.79842522492370   -0.03311812656778
C          10.73309994752121    5.14538984327320   -0.03483069634567
C          11.91016551716017    5.85764403362989   -0.01144361272106
N          11.62684496299890    7.18100476248770   -0.02800293766070
C          10.32633766409317    7.28206210207677   -0.05987411348527
N           9.72537692003289    6.06800606661866   -0.06572833814649
H           8.74542171245512    5.83237318077754   -0.08652200071457
H           6.74932145741730   -1.11004904128876   -0.06948259523327
H           4.28237479071249   -1.99717481939163   -0.12740602744927
H          10.85466837699147   -0.58645457261861   -0.01868088367444
H          12.91177858168704    5.48426645653305    0.01561206341669
H           9.78579416070689    8.20629211245676   -0.07985713725129
