34
         -62.500054839979          0.000624841223
C           0.90568116272281    0.00302005710589   -0.06420762848801
C           2.38692066087843    0.12739246700929   -0.04446112243488
S           3.15197056682694    1.67057879198813   -0.07149982558099
C           4.73649406836072    0.92891478183125   -0.02518618591434
C           4.62763576027337   -0.45339030896479    0.00768655742604
C           3.30626644279003   -0.89422593084471   -0.00377576266737
N           5.78481812307411    1.76050124979004   -0.02635425112596
N           6.95689510453758    1.22465818555626    0.01266049707862
C           8.00785412269488    2.07371444316362    0.02358060309061
N           7.97550610367198    3.40210440392498    0.02873763250569
C           9.37163993519491    1.61873773200548    0.04601269326089
C          10.12354773887108    0.44864482329241    0.06205502039186
N          11.43665200445581    0.50140407052825    0.08823162144706
C          12.04477749662121    1.70370568904998    0.09735606439333
N          13.38972894003739    1.69155895200541    0.09102925653548
H          13.87935178515528    2.56047747743822    0.20124856343813
H          13.86274867816721    0.81410622093431    0.20363780515831
N          11.44528409077686    2.89587104838605    0.09154262159615
C          10.12575135035915    2.81285184069214    0.06361252307759
N           9.23843566664785    3.84511654454463    0.05327839565692
C           9.55829082493103    5.18072047087890    0.06820066996888
C           8.69691918771703    6.24077067984797    0.05624135208611
C           9.38272641683773    7.47177670577342    0.07853667076879
C          10.73231628289076    7.32281131805363    0.10669274860037
S          11.21912392537955    5.66824414483710    0.10703557674350
H           0.44121226370945    0.98465324944409   -0.08999442281464
H           0.55738316095395   -0.52811390222570    0.82162976691542
H           0.58328656684776   -0.56177753822199   -0.93899131647403
H           5.49564449630254   -1.08663789047191    0.03789304756040
H           3.02019645129211   -1.93159171083709    0.01745221779650
H           9.67574181868017   -0.53560187099947    0.05743950385540
H           7.63025527095358    6.12121093585415    0.03237393926557
H           8.88725626154019    8.42576667811293    0.07364596284457
H          11.48231726984663    8.08782619051716    0.12727920403813
