36
         -69.189835955532          0.000294604009
C          -1.66356300735911   -0.09992792471913   -1.45522832168905
N          -1.00036475302575    1.03623713286145   -1.74599971586727
C           0.25386186780532    0.69784705511782   -1.89088111889820
N           0.44229356937762   -0.62609527986478   -1.70482332631022
H           1.30618351168008   -1.14147669719137   -1.75798482469054
C          -0.78583490128183   -1.17322150495617   -1.42034566663350
C          -0.99752485292175   -2.55609820278179   -1.16533894817104
S           0.31478424856568   -3.69120112766912   -1.17464460139252
C          -0.77660559227226   -5.00895232316434   -0.81059162680823
C          -2.08281660345506   -4.54884887851812   -0.69306732233087
C          -2.20287667788922   -3.18242650537953   -0.88999535330437
N          -0.22638638497945   -6.21897010855676   -0.69429413920092
N          -1.01968218964130   -7.21111655310744   -0.44907908709370
C          -0.39191965878438   -8.39884681417079   -0.32001494443753
N          -1.08992982882605   -9.50397498414993   -0.10968739381635
C           1.01671337789576   -8.71848413924673   -0.35631444762665
C           2.24987536517818   -8.10116685761376   -0.52092845164825
N           3.35747652589361   -8.81970263370861   -0.47543153964983
C           3.26095796669705  -10.12793729928276   -0.26947175678873
N           2.16490680169443  -10.84174908500726   -0.09748321499294
C           1.05313346359960  -10.11795941482332   -0.14500852337411
N          -0.24206753840392  -10.53015435136381   -0.00620202168743
C          -0.69755671106081  -11.81067176935207    0.20953402398161
C           0.04365241394471  -12.95259432261978    0.33063784716398
C          -0.77293893015817  -14.08055799541222    0.54503209536622
C          -2.09711230924559  -13.77629333470784    0.58150588718179
S          -2.39845136370890  -12.09708950720930    0.35490638830443
H          -2.72069651570991   -0.09508327386575   -1.28637839020549
H           1.04528438275727    1.37954689024659   -2.12911835951408
H          -2.88979842295662   -5.22267982524907   -0.46938683655781
H          -3.13150577177105   -2.64381869602458   -0.83996055850573
H           2.35295579367766   -7.03824457940240   -0.68929737345288
H           4.19349976414507  -10.67519334852321   -0.23786148297885
H           1.11552147956128  -12.96446326110298    0.26711033792971
H          -0.38688259737731  -15.07626477771366    0.66650022238318
H          -2.92487592165275  -14.44058570177340    0.72872254531365
