26
         -50.129312834357          0.000740746871
F           1.15722046536427   -0.62876609662410    0.77671804486657
C           2.46479204672391   -0.40761625523776    0.65251837308254
S           3.06525317490906    1.20676173045398    0.61488745975069
C           4.69495743873475    0.57949694316981    0.45127088187685
C           4.70428932296037   -0.80080533231251    0.43280356001287
C           3.42917118479794   -1.36620535139892    0.54762365345894
N           5.67805232455917    1.49435840984802    0.36670729733175
N           6.88217352895809    1.04258356446777    0.26489312828248
C           7.84300262638726    1.98323826961932    0.17968980141752
N           9.11630831632960    1.60104763670188    0.06415297563710
C           7.77362931388759    3.42401940647512    0.19051926902725
C           6.76178557966195    4.37711389699788    0.27158790577639
C           7.13005296199235    5.70436292186538    0.25084546664893
C           8.47134215272853    6.09745405720505    0.15645893477859
C           9.49109065374473    5.17610631512296    0.07367046268097
C           9.12075784307145    3.83573103518364    0.09146172130775
N           9.85741403038682    2.68827812245813    0.01791926505812
N          11.23431121341341    2.61211115857428   -0.04072706577967
H           5.61984439083321   -1.35457528089939    0.33820100218819
H           3.21806384699081   -2.41953177851891    0.55496209641401
H           5.73144185179811    4.07018766688929    0.34642368480677
H           6.36938812912437    6.46844686534258    0.31065300676183
H           8.70709937825405    7.15109388120338    0.14952451026414
H          10.52680625856937    5.46917051063576    0.00788724296044
H          11.58052344011086    2.88327625437488   -0.96064893367372
H          11.50162852570835    1.64976144840355    0.15043625506251
