32
         -59.051815808901          0.000725147121
C           0.82682178166306   -0.42067098079136    0.28298687185760
C           0.72771721254768    0.97982151748145    0.29085861676234
C          -0.53469879234584    1.41904409270051    0.03260570570932
S          -1.63511220639547    0.12938112127139   -0.22741347371856
C          -0.36924998547058   -1.04429084762168    0.01617251948967
C          -0.63698609790774   -2.43818075296533   -0.06950030519353
S           0.60992978605429   -3.61205205827734    0.19452302846386
C          -0.51767771342227   -4.91839516961212   -0.08717100452239
C          -1.78753438228151   -4.42845419452672   -0.36821440086830
C          -1.85001875629010   -3.04485605205301   -0.35588739081136
N          -0.03397292082917   -6.16238914551185    0.00720907226742
N          -0.85865385457187   -7.12917456329404   -0.22100545375492
C          -0.32437578099894   -8.36415663346669   -0.08715181880380
N          -1.06454993091507   -9.43473796181074   -0.34198918342731
C           0.99429978158843   -8.77808982724358    0.32717751327005
C           2.21418494044329   -8.25177646329114    0.73216381628483
N           3.21179531280041   -9.06274107126917    1.03695275977023
C           3.02067663823184  -10.37520790953069    0.95142786705990
N           1.92530685698015  -11.01276666580896    0.58896911661214
C           0.92383415757155  -10.19429883304530    0.27965028113945
N          -0.32577639238673  -10.52061568346333   -0.12581088144958
C          -0.84976050622124  -11.83934900585274   -0.32637058360126
H           1.73547818322463   -0.96649105945514    0.46430803240747
H           1.55774813814363    1.63659887507380    0.48056679114243
H          -0.88965420491556    2.42895528540071   -0.02094423235399
H          -2.60933358274526   -5.09164519627232   -0.56752819285738
H          -2.74147122376449   -2.47405662674933   -0.54902960962090
H           2.39625903934402   -7.18900006349218    0.81282649113444
H           3.86779033101044  -10.99583884988657    1.21185384815409
H          -0.09331690566990  -12.55051665362848   -0.00107062083506
H          -1.08014088119000  -11.99602837234766   -1.38151694620358
H          -1.76421804128071  -11.96555025066063    0.25377176649491
