25
         -50.376287365484          0.000969173249
C           0.85803368508359   -0.16101877172912    0.29328734735955
C           2.32117315707833    0.01784068846068    0.12069729304186
S           3.09790300873120    1.48077365210059    0.59192588958020
C           4.65817967074700    0.84633608017252    0.11175381977593
C           4.53429948525458   -0.44309063402277   -0.38599140656456
C           3.21932407187107   -0.89860735679562   -0.37838751572959
N           5.71212132396092    1.65376332312806    0.27522533581428
N           6.86825956109598    1.18883427398364   -0.05450555842139
C           7.88805031006567    2.06311640806536    0.11711035967041
N           9.13142984788546    1.68856753002384   -0.14511249522696
C           7.88212857787683    3.43958618306704    0.55345315478761
C           6.99903929906036    4.43405874320145    0.96382218611959
N           7.45642454571446    5.62731909972727    1.29033741153276
C           8.76349550180010    5.85979214711930    1.21777906770908
N           9.71188801206232    5.02373194601198    0.84496380220347
C           9.24967344622810    3.82541988709562    0.51940327072704
N           9.90359176029695    2.72507118764949    0.09499545371635
F          11.24285053034862    2.59866554916041   -0.09222922509230
H           0.33252200719336    0.77835615104981    0.13856104689868
H           0.63774094249001   -0.50322306282698    1.30548823628634
H           0.48282334720045   -0.90473149868774   -0.40566157378934
H           5.38823029551097   -0.99630478737467   -0.73315372605818
H           2.92055591786935   -1.87160217069316   -0.72850291522292
H           5.93197711287521    4.27305689556037    1.02994822349900
H           9.08753458169922    6.85308853655258    1.49602251738167
