38
         -68.642602213504          0.000425546475
C          -1.78871613767652   -0.16512479848381   -1.45261492890019
N          -1.18266331805290    0.98711558295552   -1.80449637804657
C           0.06621045707863    0.68312376889780   -2.03910306275899
N           0.30656329103630   -0.63332552714119   -1.85343130999446
H           1.17833728459584   -1.12505649130927   -1.96636835296118
C          -0.88011265333088   -1.21128925215337   -1.47238610721912
C          -1.03070056464598   -2.59749139869791   -1.18747713138474
S           0.31334162500106   -3.69433561873978   -1.28233258269890
C          -0.70796062389356   -5.04087726907423   -0.83519647607079
C          -2.01300737367331   -4.61934867814882   -0.62361162158676
C          -2.18969476319084   -3.25659624721057   -0.81824187640370
N          -0.11463905840225   -6.23586416280798   -0.73096513222248
N          -0.88282508808282   -7.24602384120770   -0.48500281511302
C          -0.24913085565096   -8.42604903185304   -0.32714303008422
N          -0.97001891988180   -9.52481002190648   -0.15710207973832
C           1.15796187550809   -8.75384042227340   -0.27859293900282
C           2.34002110511249   -8.03098486488160   -0.38844122887572
C           3.52717470040742   -8.72358592073646   -0.28484620764330
C           3.54558992114935  -10.10453723333508   -0.07347481704523
C           2.38448319474814  -10.84008250637181    0.04181852632781
C           1.18377083332674  -10.14830691297244   -0.06378715090314
N          -0.13416629106388  -10.55283172840920   -0.00317266843646
C          -0.67374597880505  -11.80668069913433    0.17092662446157
C          -2.01228879860544  -12.09372072392317    0.16183488610610
C          -2.26984266205243  -13.46268050893597    0.36772195232455
C          -1.14024709876138  -14.19673570576080    0.53071854525206
S           0.28206699057912  -13.23061990018189    0.43723709350670
H          -2.83015043668267   -0.18885813329194   -1.20525262330155
H           0.81792183548350    1.38348252582588   -2.34310789554264
H          -2.78023475410828   -5.31419067607413   -0.33427077745844
H          -3.12884608815707   -2.74690622657490   -0.70199908972270
H           2.31079362400432   -6.96597583848275   -0.55191947128529
H           4.46477382138114   -8.19455601574348   -0.36803664974751
H           4.49628877375011  -10.61074477263646    0.00274315131116
H           2.41944251403628  -11.90433236728587    0.20734412162993
H          -2.75839432625101  -11.33705158805063    0.01101458107580
H          -3.25897739101597  -13.88262045167066    0.39206221470421
H          -1.04035866521231  -15.24974634221746    0.70060270745047
