32
         -59.043613649949          0.000355432257
C          -1.22880311709095    0.06901607195241    0.01741038387408
N          -0.49142477576387    1.19803669854475   -0.01334070942934
C           0.75716037950331    0.81499545280034   -0.05155543298428
N           0.87008133939725   -0.53095451914974   -0.04697111945227
H           1.71212303918225   -1.08322263855671   -0.07091055850092
C          -0.40387780189468   -1.04387633169824   -0.00248454298707
C          -0.69001394989849   -2.43847988338283    0.01560258205476
S           0.58403901047326   -3.61765251313475   -0.01933731353034
C          -0.57564756750728   -4.92559685425261    0.02749169807881
C          -1.87122284626834   -4.43214806415764    0.06747490884166
C          -1.93264987765540   -3.04471304462761    0.06077028986625
N          -0.06424803511213   -6.16287274363003    0.01904229508141
N          -0.89176843204650   -7.15045393437642    0.05172998008382
C          -0.30023395850210   -8.37203075997905    0.04271077366099
C           1.08623168464744   -8.72368251537403    0.00726614461012
C           1.09440331916510  -10.08430108202904    0.01629413040914
N          -1.05308944215971   -9.47011273829928    0.07049492157751
N          -0.20945248352486  -10.49202882352921    0.05436038669227
C          -0.67204324166632  -11.78842141987751    0.07500383605680
C          -1.97559338885589  -12.19489953826947    0.10713371546965
C          -2.09318464422575  -13.59985951321829    0.12124517590075
C          -0.89359822051802  -14.23419381277983    0.09973189514821
S           0.42769673059584  -13.13177861223146    0.06180667313669
H          -2.29816513097669    0.10853752088456    0.05178468111707
H           1.59833220319673    1.47792405588032   -0.08287026322231
H          -2.71766833148722   -5.09380329265513    0.09994574693744
H          -2.84731744876459   -2.48065116551340    0.08772312716232
H           1.91080746626679   -8.04358932964920   -0.01968451451978
H           1.89574549401439  -10.79595619755626   -0.00074474850775
H          -2.79496649431309  -11.50169832122154    0.11962230215153
H          -3.03533920089326  -14.11648582829834    0.14614735406945
H          -0.69063227731790  -15.28614632261494    0.10364620115331
