31
         -59.976245838055          0.000321354942
C          -1.23355593604538    0.10560662156318   -0.10700837415929
N          -0.50646295196137    1.23684240677334   -0.01207579673907
C           0.73265144623855    0.85899261540181    0.15851169161004
N           0.84937299475061   -0.48630063360621    0.18067775081240
H           1.68684502732335   -1.03369603166583    0.29655427384705
C          -0.41184534767477   -1.00450534763218    0.00997962612629
C          -0.69639655721963   -2.39815115639585   -0.02461811848086
S           0.55793942625443   -3.58252524278429    0.17099294120714
C          -0.59486932848239   -4.88509236186771   -0.00881465047178
C          -1.87529723008384   -4.38588652343089   -0.20275974403549
C          -1.92956919326127   -2.99948835951536   -0.20883913841501
N          -0.10684923176945   -6.12652035781608    0.08767196407629
N          -0.93214998844142   -7.10071838334223   -0.10436821209481
C          -0.39864381839078   -8.33224971118006    0.04808411247877
N          -1.15552343360355   -9.40126417251699   -0.18754528764914
C           0.92082344560223   -8.75149852595630    0.46368641314982
C           2.10147101035880   -8.11761152127903    0.84238426015126
C           3.17472434992477   -8.91053004807246    1.18581000498639
C           3.09874576032238  -10.30872093267794    1.16143949375788
C           1.94548216697164  -10.96573719683620    0.79359895029868
C           0.86372148580050  -10.16516090676757    0.44759590927160
N          -0.40220316186741  -10.43992553821111    0.04873688152997
F          -0.91852027974983  -11.69111907701898   -0.11836784712090
H          -2.29381458846637    0.14063703949657   -0.25110931544228
H           1.56407720271486    1.52578058074981    0.26849341356277
H          -2.71515972732963   -5.04481611232823   -0.32797307312069
H          -2.83148493667063   -2.43101241526228   -0.34505295885699
H           2.15666463105708   -7.04152432528074    0.85959216375442
H           4.10324081163422   -8.44759989866020    1.48398937462253
H           3.96802806370583  -10.88430641186730    1.44103063055388
H           1.87734788835677  -12.04179807201122    0.77381266078871
