30
         -60.855189358020          0.000676859316
C           0.81564252070665   -0.39132866296302    0.08342377090571
C           0.55193396427290    0.94917677669157    0.12373206379240
C          -0.85711287356958    1.03755087105743    0.10039958835718
N          -1.40614842732945   -0.15084197435625    0.04951230238952
N          -0.39002085192684   -1.02578374197696    0.03925554667001
C          -0.63164759820059   -2.37156034392382   -0.01427899006065
S           0.64951455443990   -3.52614806260391   -0.01633109919080
C          -0.51705255235296   -4.83422269623501   -0.10427617706235
C          -1.81754323060486   -4.34277880382937   -0.12452402582100
C          -1.88252846443840   -2.95916455028758   -0.07238260190775
N          -0.02326103637975   -6.07360439411260   -0.12132122469943
N          -0.85889347353933   -7.04428624695453   -0.25179118377174
C          -0.32636350978523   -8.28267441859442   -0.14667771603013
N          -1.02209049126077   -9.33628004379385   -0.51884775596440
C           0.93844846864878   -8.69838882218122    0.42690638435427
C           2.08250253788047   -8.15755107445359    0.99954117788613
N           3.05076075477820   -8.95645123056864    1.41077447871784
C           2.90073216852628  -10.26764213456980    1.27734212752359
N           1.86751277458396  -10.91235575414123    0.76569736973522
C           0.90635976108434  -10.10801864021424    0.34654383746065
N          -0.29484370387088  -10.44154252973664   -0.23559069655663
C          -0.72631187589906  -11.66755990873073   -0.51239489212216
N          -1.08085690051055  -12.72821016996699   -0.75070337034284
H           1.73500730624081   -0.94053369389617    0.08153213083871
H           1.25309266771104    1.75606792250626    0.16376720839069
H          -1.46985332801168    1.91625728843926    0.11912069447588
H          -2.66163074584333   -5.00635059035962   -0.17605644339716
H          -2.78269985712499   -2.37305997737555   -0.07679500043518
H           2.22734138838268   -7.09352619307359    1.12542015805651
H           3.71615005339550  -10.88282819978244    1.63154233781728
