25
         -51.181506276135          0.000470492164
N           1.31034583831334   -0.81788287037229   -1.45502329815209
C           2.41496178491472   -0.61001324018019   -1.21997782346712
C           3.75995724954798   -0.37539839676141   -0.93060220289505
S           4.46058989272637    1.19629891667486   -1.12507792731859
C           6.00640837929115    0.58544437328807   -0.60231725432198
C           5.94402729192146   -0.76606731854102   -0.28952069970950
C           4.67736667505430   -1.30442459304518   -0.47306190991021
N           7.00735391807823    1.47948684231957   -0.50540360210776
N           8.17856977110885    1.00911903538271   -0.25725627784734
C           9.14956757000481    1.92783389748904   -0.07865017649687
N          10.39671520837304    1.50995409272167    0.13650228366535
C           9.10849256561365    3.37233152710032   -0.04579686896361
C           8.12989895127867    4.35185764036491   -0.19413688247468
C           8.51984037724873    5.66909925678405   -0.08405885218796
C           9.84933094310176    6.02909556964294    0.16971624913238
C          10.84010309728543    5.08415257842550    0.32145906926659
C          10.44613106952144    3.75668828301755    0.20849517188526
N          11.11668903519818    2.58014439471064    0.29568951969651
F          12.45150315230485    2.45633672791745    0.53220013489867
H           6.80586186809730   -1.30302313028014    0.06253117552614
H           4.41635112590822   -2.33177168263722   -0.28910018280193
H           7.10753073187942    4.07282855492674   -0.38975331840995
H           7.78424300301000    6.45107326388347   -0.19541776967911
H          10.10148744112554    7.07547832558583    0.24854595055702
H          11.86601305909222    5.35153795158276    0.51828549211624
