33
         -59.250329933429          0.000852829002
N           1.30733154670252   -0.57785708892966   -0.94272325052686
C           2.64784985171438   -0.35389508415748   -0.83923596096065
S           3.27926802979460    1.25751518815064   -0.80305314293204
C           4.91446381496236    0.63844080162166   -0.57331617761659
C           4.90555495153710   -0.74678710638561   -0.53708341167877
C           3.63927039036716   -1.30268093901949   -0.68382597925920
N           5.88312927344397    1.54638171598681   -0.45615703968037
N           7.09449350337933    1.11105739647896   -0.31859064658468
C           8.02995436827385    2.07685212736480   -0.17825260337128
N           9.30126840746910    1.72505541706560   -0.05319827860872
C           7.91572991130033    3.51577978207946   -0.12057638462316
C           6.86476372722871    4.42411645866659   -0.19372543104393
C           7.16701240296528    5.76454498713219   -0.09581649906031
C           8.48402468059445    6.20364828275044    0.07138863103766
C           9.54048139083980    5.32182957258331    0.14761053376992
C           9.24252925432484    3.96759458843082    0.05064244044859
N          10.03036836806531    2.84175332981192    0.08391506412297
C          11.39317287823021    2.70603292787444    0.23246545351214
C          12.44739881735466    3.56858095295818    0.42454921867035
N          13.60035774524541    2.85944579844063    0.50668206447684
C          13.27341346538004    1.60533056370591    0.37166711159424
N          11.93909326281820    1.45173543066222    0.20096029349010
H          11.38708686710772    0.61754058023329    0.07544975624186
H           0.73234605383053    0.18497868512345   -1.25817339785545
H           1.01687479987802   -1.49880269276499   -1.22735210784847
H           5.81514098485794   -1.30250864320846   -0.40131039687135
H           3.43615873085402   -2.35836133155274   -0.67562814825539
H           5.85393378260253    4.07319488771535   -0.32407501234798
H           6.37531177054601    6.49698300581887   -0.14921370176705
H           8.67751925807476    7.26378159749043    0.14280951739136
H          10.55064594216009    5.67234525282182    0.27562763796352
H          12.46001839425540    4.63415012356694    0.51083517985506
H          13.96410337383961    0.78729343148327    0.39089466831729
