34
         -62.983365845152          0.000897863216
C          -1.15212123005452    0.09520638201931   -0.00723603248407
N          -0.41233459857142    1.22200438199411   -0.05304804139927
C           0.83433822423989    0.83491487386630   -0.10912777105258
N           0.94375209682087   -0.51147678008481   -0.10187445373737
H           1.78482113690506   -1.06454828399049   -0.13674885358661
C          -0.33055046696315   -1.02027013667249   -0.03617806490434
C          -0.62689289429107   -2.41233302191419   -0.01004923272669
S           0.62920295117675   -3.61000582353239   -0.06188850531579
C          -0.54796196127668   -4.89980274991564    0.00614833049166
C          -1.83681661669700   -4.38619942258657    0.06503889047914
C          -1.87868823121357   -2.99931598857354    0.05605870471949
N          -0.06168386608279   -6.14523990650474   -0.00356630953244
N          -0.92004092448178   -7.10671212497155    0.04617578748794
C          -0.41973467958972   -8.36184229132243    0.04153526404173
N           0.85970683222723   -8.72377923913511   -0.01277176377945
C          -1.24764874667340   -9.53272967784340    0.10163143403922
C          -2.58524533444690   -9.90609031386053    0.17808801709603
N          -2.91931703445820  -11.17573701345374    0.22039050254796
C          -1.94570757860159  -12.10793104059032    0.18728940473367
N          -2.36194550463439  -13.39042457232441    0.19443116108456
H          -1.67950811191482  -14.11818905136457    0.30175874320700
H          -3.33273549146330  -13.57166812975539    0.37188124767551
N          -0.63267991614432  -11.89218223441739    0.12287251167842
C          -0.31868209323827  -10.60280913863499    0.07787367905295
N           0.91632312022950  -10.05440721276115    0.00892518309136
C           2.16561379041694  -10.75445179326048   -0.03910791268409
H          -2.22071633483516    0.13796988919650    0.04356824873619
H           1.67678086517245    1.49531917164293   -0.15565617130425
H          -2.69368485221552   -5.03343152168315    0.11231510773828
H          -2.78446753239625   -2.42194502825316    0.09610014271209
H          -3.39342490529151   -9.18812489486360    0.20900469851506
H           1.94825469813785  -11.81971257939379    0.00003659123482
H           2.78893420096729  -10.46467611676667    0.80814793293195
H           2.69532098924145  -10.51185861028862   -0.96159847078812
