35
         -63.044153269975          0.000631817724
C           2.18928655672828   -1.08214279704186    1.18773434146420
O           2.90848178222499   -0.22637610060235    0.32393773682215
C           3.45537986844747   -0.78168669712431   -0.76906463975495
S           4.32906418818803    0.27190350433022   -1.82374696895104
C           4.69814346947674   -1.08098353347425   -2.88909985344264
C           4.14517344143569   -2.25153550098288   -2.40452056642185
C           3.44156245247046   -2.08439244494921   -1.21015338738919
N           5.40738905499099   -0.80401107717199   -3.99007081031218
N           5.74355313616223   -1.79800753393336   -4.74296034817786
C           6.40121388400390   -1.45843822885722   -5.87384092157906
N           6.87565388502518   -2.41759969184946   -6.65660281617793
C           6.67960292978992   -0.16936415484736   -6.46210727148271
C           6.42209024820605    1.15044649630450   -6.10579063572226
C           6.85459492308203    2.14018278607778   -6.96074231283054
C           7.52487348024572    1.83454592533099   -8.14944717923477
C           7.78792323852516    0.53421507814413   -8.52325723859117
C           7.35921508103641   -0.46953738527020   -7.66256881278903
N           7.45011918682412   -1.84087718457897   -7.71881964843591
C           8.03715602106996   -2.66011389664218   -8.65818738606779
C           8.71568311658922   -2.46560242850899   -9.83931934848604
N           9.08044942369320   -3.66619719946114  -10.35187563480872
C           8.64506708797956   -4.57098377102222   -9.52095574496591
N           8.00037258733737   -4.01495958749782   -8.46862663979317
H           7.56012825806212   -4.44488844394197   -7.67004413007181
H           1.83390931711551   -0.45032989908201    1.99904184541549
H           2.83361828134096   -1.86972376080035    1.58925974522241
H           1.33704072433957   -1.53532602593089    0.67304278605212
H           4.26019987238895   -3.18462017672807   -2.92570036261574
H           2.94648284146441   -2.88847394039573   -0.69636800953618
H           5.90353202923476    1.37175572958004   -5.18715687650340
H           6.67461787597898    3.17593482443692   -6.71453023364112
H           7.84322242500746    2.64112270771534   -8.79306916616508
H           8.30025381771697    0.31190147136822   -9.44390716458539
H           8.96555878292344   -1.56044693474759  -10.35054184590747
H           8.77502673089409   -5.62680012784849   -9.64305050053660
