25
         -50.971897483437          0.000278265645
N           1.33294416645542   -0.65989278577400   -1.64775374432528
C           2.43380755874393   -0.44606194124102   -1.40076633825723
C           3.77327538297512   -0.20437096286805   -1.09385491096197
S           4.48176546430466    1.36018312574400   -1.32095661044418
C           6.01845392140202    0.75932464960241   -0.75975155353611
C           5.94640331004277   -0.58338610275617   -0.41007266810972
C           4.68107794593783   -1.12256493768341   -0.59649954156022
N           7.01908827150819    1.65114023596731   -0.66695941711862
N           8.19338524051034    1.18258062702576   -0.41603101947772
C           9.15224015167548    2.10641994283752   -0.22648513922052
N          10.41533493210775    1.71578032886046   -0.03291420260484
C           9.08661854815469    3.54363920677371   -0.16888790780191
C           8.17867936546351    4.59302503049797   -0.28432736137136
N           8.59708686284244    5.83832225636205   -0.17213464674788
C           9.88844437835540    6.07202934022723    0.04786477874281
N          10.85545557973315    5.18706814639835    0.18278996790392
C          10.42682473195015    3.93325356204921    0.07990664731614
N          11.15418094979841    2.78863026248471    0.14899973768405
N          12.48463571494644    2.69114625194455    0.46886435746130
H           6.80083798050049   -1.11248130342208   -0.02936225451906
H           4.41405002697280   -2.14371163183807   -0.38810882469186
H           7.12534713715671    4.43709187933572   -0.47096545492768
H          10.17795191355604    7.11113580323506    0.12248615296516
H          12.99620165226300    3.49288719187446    0.11400145611994
H          12.85561881264184    1.80250182436159    0.14899849748283
