32
         -59.852947831903          0.000454145225
C           0.87471056687155   -0.42154802813756   -0.01440620560770
C           0.78262367970346    0.97879932984029    0.00866756861594
C          -0.50513858323203    1.42050201582067    0.03292039700244
S          -1.63829484326829    0.13403571837327    0.02700512862346
C          -0.35240503980946   -1.04253515270862   -0.00863392415179
C          -0.63451841199837   -2.43566325909245   -0.03146968777139
S           0.63882211185644   -3.60980660945193   -0.04910405000729
C          -0.52455155792349   -4.91573888962961   -0.09500831472015
C          -1.82550684016636   -4.42427002188119   -0.08659065731013
C          -1.88236533718917   -3.04151191831232   -0.04803470050962
N          -0.03352838853932   -6.15897701547203   -0.09773851312599
N          -0.87352453488176   -7.12569495808916   -0.23755072291304
C          -0.34752346798797   -8.36752170174287   -0.12870325661011
N          -1.07374626615661   -9.40921179751388   -0.48282775383345
C           0.93233357028391   -8.79897283828753    0.40364447302236
C           2.05476614388023   -8.17006492660506    0.92949436485088
C           3.09876173536406   -8.97023275134687    1.34633020481035
C           3.03929253471535  -10.36312491295699    1.25280155187623
C           1.93185328627231  -11.00902947033118    0.74053854261502
C           0.88627866073394  -10.20125624112892    0.32207404452541
N          -0.34804715358866  -10.51530655895872   -0.22751199069575
C          -0.77981131691721  -11.73877393990284   -0.48631440316532
N          -1.11190447130030  -12.81590841406463   -0.69098877532301
H           1.79996408694997   -0.96882419594283   -0.03661578293036
H           1.63490475264061    1.63397245947828    0.00723403865103
H          -0.86047865794143    2.43150169100366    0.05410227904026
H          -2.67268393874275   -5.08564197975524   -0.10547938509333
H          -2.79433944816408   -2.47036946026888   -0.03664696844207
H           2.09652048504705   -7.09508118003610    0.99682057621650
H           3.98714822441825   -8.51367191507974    1.75596678018076
H           3.88013849981711  -10.94835568882081    1.59311862645696
H           1.87486991921594  -12.08403738898914    0.67019651572866
