34
         -61.979198972626          0.000374522518
C          -0.61313089499760    1.37976740670132   -0.12793279282241
C           0.70868254904931    1.41904471241479   -0.25169652131329
S           1.78306224688080    0.04185900302852   -0.01999391865090
C           0.54934438658595   -1.21650233278188   -0.09193636713784
C          -0.75654159842257   -1.00464300564117    0.01522523034171
N          -1.35980808566072    0.24216743485048    0.18487587103688
C          -2.68393185933403    0.34252845951659    0.50765800278084
S          -3.70086600361533   -1.06793882257508    0.58704712056804
C          -5.08681164073258   -0.08323316335416    1.03260403503920
C          -4.72853845725673    1.25291663644441    1.10310059556457
C          -3.39115094291394    1.49324492334487    0.81857021113013
N          -6.22965658733889   -0.73320447239765    1.25743411734918
N          -7.26455634051749   -0.02080558825166    1.56217424630996
C          -8.38619266711132   -0.74116050523804    1.81551033146746
C          -8.58815714297584   -2.15752073085924    1.85338652950175
C          -9.90134949211540   -2.30838551002914    2.17621307820792
N          -9.52106633236483   -0.10693054785210    2.10054105854491
N         -10.42665486864795   -1.05481119010584    2.31499241840303
C         -11.72401013980050   -0.72542578433977    2.63159240314064
C         -12.24670692160837    0.53142508197204    2.74314714252420
C         -13.61558232793275    0.50997627460284    3.08106800335560
C         -14.10962460852019   -0.74593168409113    3.22055406298377
S         -12.91232763684078   -1.95275744549993    2.94274634818942
H          -1.19468166275135    2.26825751627312   -0.31785174296388
H           1.22039090729077    2.32233859653988   -0.53165922300171
H           0.94937048292166   -2.20226242610163   -0.24637315390534
H          -1.44765948377098   -1.83233577641665   -0.04493391510308
H          -5.44786362995842    2.00531460115954    1.37069372542839
H          -2.95186280767871    2.47311817136628    0.86565034725757
H          -7.84955103633483   -2.90799002981449    1.66679787073308
H         -10.50794878951808   -3.18065758962465    2.31945820991244
H         -11.65802587252183    1.41493440671943    2.58550831528162
H         -14.20796260148218    1.39711037563131    3.21387336769136
H         -15.10563014000365   -1.05170699559536    3.47013499215566
