31
         -52.875650557674          0.000371384491
C           0.48365757414252   -0.49477745156429    0.04045739244166
O           1.63722983514726   -0.21049759341719    0.80055254944364
C           2.42307822307748   -1.25790387542974    1.12275815768815
S           3.83095541781981   -0.91239835988882    2.06745323090163
C           4.26539813247234   -2.61871311209863    2.06979102623265
C           3.34120126319827   -3.35759600148364    1.36390288785689
C           2.29928339112742   -2.59011016805652    0.82671202358434
N           5.39665018255947   -2.94927057851958    2.71569560608718
N           5.69814214977471   -4.20435348080077    2.76343845772676
C           6.85050661215482   -4.50776997498340    3.40252263427350
C           7.28433681139433   -5.81676721281238    3.56399292386762
C           7.84966740091808   -3.67553530095953    4.03012495044127
C           7.98989514888386   -2.30379887219139    4.21411232493664
C           9.10743172260859   -1.84499434581425    4.88034007628066
C          10.08310177593306   -2.72096806451474    5.36047910569156
C           9.96839161416570   -4.08554765172753    5.19145512399398
C           8.84422007883960   -4.54966376885696    4.52302248357787
N           8.46015357368882   -5.83640706400754    4.22778485344269
N           9.22712890440873   -6.96108795234916    4.52715122314717
H          -0.01812005397700    0.45990949330783   -0.10411792394837
H          -0.18075198392726   -1.18310048657816    0.57210085138913
H           0.74651558707273   -0.92323810141464   -0.93178278487719
H           3.43737920069762   -4.42186367945699    1.24873185235700
H           1.49575471040360   -3.00803445205231    0.24751869586539
H           6.81157766288791   -6.72003281794458    3.22772122020499
H           7.23465191834329   -1.63148620767648    3.84044661213453
H           9.23693179356557   -0.78408024162839    5.03564791612259
H          10.94539681634784   -2.32091676016449    5.87318133548270
H          10.72499562123511   -4.76618883964651    5.55098850398501
H           9.31684832271737   -7.07266642327123    5.53631347841638
H           8.78296059231744   -7.78640065400082    4.13525321125364
