24
         -54.879571831229          0.000409474539
F           0.95520187617702   -0.15716134532232    0.01487500709762
C           2.27838692373140   -0.03635903269895    0.02187257705531
S           3.00380170037244    1.52191492410358    0.00317488949105
C           4.58555867293301    0.76513409267633    0.02650091695510
C           4.48594492421072   -0.61657652011353    0.04628680370181
C           3.16805581923557   -1.07582337948937    0.04371072692835
N           5.63754625178787    1.59641654079006    0.02812155026789
N           6.80682450008466    1.06487622907719    0.04747400059684
C           7.86071994497922    1.91092359492309    0.06313456132283
N           7.82942412407466    3.24305614263871    0.07526788291497
C           9.22360168945916    1.46417141683089    0.08248004977690
C           9.97081832575252    0.28594258089219    0.08541700149044
N          11.27955499817718    0.32863135919229    0.11446307439032
C          11.89965120205339    1.52879576583340    0.14035512302921
N          13.23933527010613    1.49968429465476    0.17142290588527
H          13.74976941243954    2.36279077433191    0.19742259918114
H          13.70731338458750    0.61274765186513    0.18423204917899
N          11.31190564938875    2.72693950085805    0.13701263604164
C           9.99317441288116    2.65687894401619    0.10866277426910
N           9.07655157988070    3.64644107314449    0.10006598336104
F           9.33556912288087    4.98536044297066    0.12370949911123
H           5.35818196775395   -1.24393595208969    0.06211568080024
H           2.87005844316380   -2.10802609677124    0.05745856716050
H           9.51257980388873   -0.69300300231374    0.06458313999220
