33
         -62.767511817184          0.000621993690
N           0.91217740501155   -0.16553840206666   -0.20944294041992
C           2.26512715611593   -0.05203778076499   -0.10810312696968
S           3.03311450855905    1.49789811940481   -0.12600342681284
C           4.62403993611861    0.73870739170655   -0.05630271969064
C           4.49683718518368   -0.64298151338852   -0.01989296659175
C           3.18115799344612   -1.08666906507919   -0.04955377320487
N           5.66969034158767    1.55892643201562   -0.05608877082259
N           6.84676241395275    1.02512048446698    0.00356913314280
C           7.89173601956815    1.88138303452447    0.01087120273294
N           7.85382712253321    3.20845313105040    0.01560872809436
C           9.25806966849407    1.43126172397867    0.03120400479820
C          10.01291625945210    0.26449025029031    0.04557299085618
N          11.32701188833006    0.32028840754598    0.06786902733276
C          11.93043572658909    1.52432111792619    0.07385397643782
N          13.27656671380312    1.51609034699095    0.06141248369150
H          13.76310803583428    2.38683014961176    0.17234447994514
H          13.75136005850004    0.64035733402333    0.17676361077862
N          11.32840457767867    2.71482039069171    0.06931429933748
C          10.00841192315655    2.62839451411949    0.04553749319666
N           9.11932007133055    3.65705769891112    0.03723326416503
C           9.43346025115722    4.99361530863184    0.04992678416150
C           8.56844438337895    6.05032517289513    0.03586478963228
C           9.24958110993631    7.28436420702058    0.05499342431044
C          10.59941263600599    7.14130176207108    0.08289266919133
S          11.09228029191504    5.48747816149681    0.08683645343249
H           0.36173354382062    0.65855421552566   -0.03769800413401
H           0.49990538902129   -1.04323460570071    0.06211048217496
H           5.36319152411864   -1.27780654757114    0.02512102629034
H           2.88877756522427   -2.12159956043919   -0.03218499263753
H           9.56856131101152   -0.72136851028916    0.04290433192951
H           7.50232514556737    5.92599552860703    0.01247884774647
H           8.75018346509297    8.23645354320704    0.04784359793025
H          11.34680837850467    7.90886755858589    0.10112361997484
