30
         -60.876349863569          0.000894339833
N           1.47280096918083   -0.74321446572704   -1.37743759877468
C           2.57820003773119   -0.51594040036734   -1.16770535353819
C           3.92424642995764   -0.25668797830319   -0.90427054570422
S           4.60458906606967    1.31409714608670   -1.15898183738852
C           6.16702045847415    0.73236679937680   -0.64910487034279
C           6.12261267121968   -0.61086218361601   -0.29290440319338
C           4.85829528851806   -1.16418353406360   -0.43420268979773
N           7.15771488598334    1.63611154627431   -0.59780095607128
N           8.34912391306395    1.19204396440734   -0.39180136782860
C           9.29281568721623    2.14274899608761   -0.23932918610824
N          10.56808507684554    1.78987170119850   -0.12484122653090
C           9.17845764526161    3.57716748763047   -0.13099525945737
C           8.21641813939163    4.58196366323000   -0.14949568230077
N           8.58185682743899    5.84078148709729   -0.00312608216861
C           9.86974918060845    6.12209124119851    0.16522736061461
N          10.88126155219627    5.27643043226575    0.20833855597968
C          10.51189322326918    4.01260521364530    0.05618691886792
N          11.29698504327680    2.89345523972752    0.04738840473180
C          12.66355928507756    2.82174234941404    0.18635040902700
C          13.63022257329630    3.78275452586192    0.37927099551260
N          14.83973570290510    3.18225762251413    0.45304188335152
C          14.63043145230740    1.90231465204651    0.31132869766838
N          13.31597316808995    1.62105219105695    0.14458948960791
H          12.85966351244884    0.73227299901326    0.01245167868209
H           6.99514445381670   -1.12962541476872    0.06017525330079
H           4.60903599111629   -2.18729235694676   -0.21385698168204
H           7.16243218342084    4.38132979618269   -0.28233783674578
H          10.11789409434293    7.16794118530366    0.28261479833997
H          13.50839782133761    4.84199842649164    0.46487035362338
H          15.39575366613466    1.15335766768229    0.32311707832608
