32
         -60.214695895226          0.000728455595
C           0.87532118863577   -0.40728314168370   -0.04818595705448
C           0.58042324165733    0.97021428339322   -0.04470966937072
C          -0.77939467762185    1.06330644269412   -0.00215679750240
O          -1.34273789754087   -0.15309961241846    0.02092586818955
C          -0.33704960630892   -1.06029385027645   -0.00704610669431
C          -0.64735114662150   -2.45335161635413    0.00925303328012
S           0.60537097405568   -3.64475824725841   -0.02378667499500
C          -0.57980577181535   -4.93198512340162    0.02063227823766
C          -1.86890717157594   -4.41945775511209    0.05803776425758
C          -1.90379570652806   -3.03165552049499    0.05158586201404
N          -0.09961756101065   -6.18284005079247    0.01349751603333
N          -0.95278174294050   -7.14736611139081    0.04776873575879
C          -0.39123566606013   -8.38412731162070    0.03890090717508
C           0.98756872595134   -8.76446684829451   -0.00430597895440
C           0.96959676515582  -10.12490440706216    0.00804434492759
N          -1.16777953122150   -9.46562773724938    0.07432919479730
N          -0.34392569203506  -10.50425122385285    0.05561851983601
C          -0.82520863826799  -11.79411487741852    0.08396985721341
C          -2.10861090118238  -12.26427401207766    0.13203270464816
C          -1.98977365980659  -13.67432335975689    0.14162943283295
C          -0.65873988329614  -13.94827870183603    0.09911615243638
O           0.06214736495196  -12.80761355532280    0.06368981157549
H           1.84026420986407   -0.87003643098594   -0.07669997180451
H           1.28030187478489    1.77981650674255   -0.07024310043884
H          -1.43892720011491    1.90825627037156    0.01516165599427
H          -2.72699301340295   -5.06624737334848    0.08847564479665
H          -2.80309159320926   -2.44235308961341    0.07660146539114
H           1.82504846465028   -8.10047476585299   -0.03830586729016
H           1.75270045337764  -10.85543171533896   -0.01197808974093
H          -2.99665801577796  -11.67011480847251    0.15642773176388
H          -2.79033144853790  -14.38379865390115    0.17567778410688
H          -0.11029673820822  -14.86837360201368    0.08943194857947
