30
         -61.220320896403          0.000655308747
C           0.82998448027602   -0.34376578980296    0.09401756004846
C           0.49234264546040    1.02156924505229    0.13218163967747
C          -0.87202448634954    1.07194099447833    0.10422335495796
O          -1.39684296084220   -0.15764068792090    0.05132534946640
C          -0.36371428282586   -1.03429434879433    0.04465236484487
C          -0.63368298761874   -2.43229729133548   -0.01123622443595
S           0.64118143225297   -3.59421705529255   -0.01038872981174
C          -0.51906669456969   -4.90331211717337   -0.10186602029611
C          -1.82322496178806   -4.41419993963637   -0.12644375177267
C          -1.88436160715372   -3.03375918644467   -0.07434679741722
N          -0.02996264730664   -6.14465380672736   -0.11965080978205
N          -0.87192465522477   -7.11153666835630   -0.25061255673678
C          -0.34374146974443   -8.35166492530330   -0.14715880148855
N          -1.04353698965811   -9.40416803542446   -0.51496444045135
C           0.92375881798894   -8.76949909375533    0.41985675202842
C           2.07259792977907   -8.22936728339624    0.98324646290050
N           3.04282441768189   -9.02960901599731    1.38839147811646
C           2.88949308713013  -10.34046224703621    1.25726736402842
N           1.85178230180905  -10.98461433949721    0.75343449532202
C           0.88895831212482  -10.17895902409122    0.34022767087726
N          -0.31585166571420  -10.51118681564222   -0.23487657816599
C          -0.75042059058098  -11.73594927614062   -0.51049939346026
N          -1.11370816300578  -12.79610783020203   -0.73869247611093
H           1.80923276707657   -0.77648688753919    0.10003065851049
H           1.16572153193533    1.85240209207087    0.17432933497106
H          -1.55684107070805    1.89681346109307    0.11733223972958
H          -2.66682898074472   -5.07834292678406   -0.18101365620536
H          -2.79297109363228   -2.45895018543414   -0.08233993738102
H           2.21985043474979   -7.16541359113547    1.10634314622213
H           3.70652714920529  -10.95677742387785    1.60583030178105
