20
         -41.935622142696          0.000581872720
N           1.06010161363378   -0.20646564409253   -0.06041936672636
C           2.20160583945313   -0.08703920518367   -0.05112556386825
C           3.59212048714716    0.04849479120911   -0.03843635938973
S           4.33738856410879    1.60734381766356   -0.03319044232446
C           5.91384165083533    0.86492588592024   -0.01809462825683
C           5.82932890804364   -0.52141067473432   -0.01765261990076
C           4.51910910941562   -0.97981781452839   -0.02910128004849
N           6.96619770178158    1.70410180629292   -0.00872087882659
N           8.13334070315531    1.17418939267607    0.00364664119652
C           9.15940883688211    2.06787946901550    0.01304478597540
C           9.13602655816760    3.50413734737200    0.00850519022750
C          10.44192462283176    3.87084020552208    0.02306314783307
N          10.40522336576621    1.62137344833635    0.02924190451717
N          11.17914185734172    2.70643357530162    0.03547336186094
C          12.50745034068036    2.64578541178723    0.05283672000509
N          13.65097871892775    2.63543330161820    0.06517706319850
H           6.70764431079531   -1.14091424056897   -0.00918740504745
H           4.23254033556817   -2.01665324957476   -0.03076994954263
H           8.26272886057026    4.12116119334341   -0.00383718303280
H          10.92404761489439    4.82794118262441    0.02617686215031
