38
         -73.446249666259          0.000553089366
C           0.88515682929767   -0.41485653602101    0.13032552020488
C           0.64990303396177    0.93374677730065    0.14352727776344
C          -0.75420665529171    1.05011979712627    0.12924101123705
N          -1.32817781626090   -0.13002741739857    0.10897488248511
N          -0.33080667104798   -1.02349981418456    0.10959713921389
C          -0.59736088285572   -2.36986410010153    0.09158841210924
S           0.66872189541155   -3.54559678630691    0.09047051635419
C          -0.51575825656679   -4.83900835142391    0.06474352253844
C          -1.80636175342701   -4.32874616638820    0.05809096441922
C          -1.85309867550636   -2.93987712126852    0.07346920227915
N          -0.02802592668421   -6.08261557081614    0.06125301768072
N          -0.88242281954960   -7.04923677687509    0.03937901968551
C          -0.37078240002149   -8.29949909363015    0.04045115959996
N           0.91128701466191   -8.64478887329228    0.04953927218892
C          -1.19037182172788   -9.47868141515075    0.03143019948578
C          -2.53111241263413   -9.85031410292301    0.01563883622087
N          -2.86944632163079  -11.11901230477842    0.01184700008448
C          -1.89512775696902  -12.05085787477958    0.02465222700461
N          -2.30243365851252  -13.33230205176171    0.04910994587746
H          -1.61550025432059  -14.05995978689044   -0.02095262468072
H          -3.28167758549223  -13.52970728202672   -0.04047467749583
N          -0.57941382864041  -11.83116245462324    0.03237113840664
C          -0.26322051228377  -10.54770318876089    0.03766131249303
N           0.98248408176003   -9.98270124748536    0.04708974966193
C           2.21067048505640  -10.60515080171038    0.05573587428835
C           3.46331790874159  -10.05156489978886    0.06873001789506
C           4.35280648888163  -11.15047001940118    0.07373936620127
C           3.57748599815297  -12.26925603810919    0.06345630094144
O           2.26950456687255  -11.94493029250733    0.05220545386621
H           1.79284659624669   -0.98305222426730    0.13388751296524
H           1.36928261117953    1.72560212957924    0.16090793430594
H          -1.35017365918767    1.94063461197800    0.13311290215052
H          -2.66256553554891   -4.97808108263457    0.04349650216209
H          -2.74717613699222   -2.34442519415532    0.07208727218647
H          -3.33705110708347   -9.12954156854179    0.00362929872740
H           3.69092043250969   -9.00717119694514    0.07388635584094
H           5.42223821314873  -11.10823508354293    0.08379379904575
H           3.81907629235266  -13.31288659749325    0.06299738460537
