32
         -60.063416068631          0.000702888831
C           0.83533471222984   -0.28427528556763    0.07616637936044
C           0.50769525070628    1.08638773441971    0.07534633025783
C          -0.85239579978437    1.14783193479080    0.00746980780414
O          -1.38641944605837   -0.08184072991466   -0.03501334268609
C          -0.35955468158609   -0.96539219850398    0.00698585949774
C          -0.64005508374505   -2.36451489349972   -0.02623917419061
S           0.63409996474636   -3.53542597266728    0.03737632335715
C          -0.52349940437946   -4.84313531325872   -0.07452710466991
C          -1.81903699875525   -4.35349193663164   -0.14191398133612
C          -1.88133553965714   -2.96611528302456   -0.11031917409833
N          -0.03846917485410   -6.09210560783981   -0.00578438127319
N          -0.85761837729351   -7.05679420313826   -0.25080372139166
C          -0.36732344072322   -8.30728533968586   -0.08011452844180
C          -1.11769284094919   -9.43725550192997   -0.36812835667700
C           0.90838496310907   -8.77531133278939    0.41806013808900
C           2.06264877684471   -8.14174267223296    0.86667391636205
C           3.11975224624792   -8.92488789268968    1.28400121847796
C           3.05082346227279  -10.31885507307317    1.26588966545145
C           1.91963603963394  -10.97651767658511    0.82686057127514
C           0.85941179989553  -10.18899043982320    0.40585666927239
N          -0.37322570410911  -10.52112409990535   -0.07654602522409
F          -0.81510162666287  -11.80852294462637   -0.24698588030213
H           1.81035747743574   -0.72426012280094    0.11965815598567
H           1.18733918601443    1.91227039944328    0.11944054349386
H          -1.53189640627874    1.97667400164050   -0.01617708801998
H          -2.66614638079599   -5.01260273945915   -0.19938126937043
H          -2.79155341529912   -2.39484040751326   -0.15109206153632
H          -2.11148198740827   -9.51860730452668   -0.75930670939789
H           2.11363143579455   -7.06508530083447    0.87847939543111
H           4.02520230387986   -8.45212467586353    1.63335773501531
H           3.89958495760508  -10.89470680046330    1.60260574332990
H           1.85679373192430  -12.05370232144569    0.81081434615453
