31
         -56.901362217484          0.000779229561
C           1.74548904501084   -1.42568350679824    0.28567302594670
O           2.21845321428576   -0.17098711117554   -0.15878076387703
C           2.87984621267946   -0.14437779132024   -1.32660562839756
S           3.46711854387864    1.39098388277233   -1.85694694607655
C           4.14421650119511    0.64753557837962   -3.30170456962286
C           3.89366944800847   -0.71236593815898   -3.31471149205685
C           3.18110031927438   -1.16190572899668   -2.20213597154308
N           4.77261901041761    1.46283358656651   -4.15724043729000
N           5.31666211841960    0.92666150084092   -5.19168370018952
C           5.88326234860578    1.76554042575533   -6.08898949117382
N           5.69265950116051    3.07655738861004   -6.19415671421354
C           6.74460204313928    1.31858303853186   -7.14601525449562
C           7.33223126274608    0.15984806199738   -7.64026693918280
N           8.10627787099176    0.20664977548443   -8.70134310153220
C           8.32435443541030    1.39676960740502   -9.29568712322193
N           9.16666444041569    1.37887593227882  -10.34964708297837
H           9.26027780541366    2.20926195565583  -10.90472001603406
H           9.44804598283169    0.48758625018061  -10.71443620036858
N           7.82021239327614    2.57630776671892   -8.93737338258564
C           7.04229563434627    2.50528301976135   -7.86281121176821
N           6.37963326756691    3.51314846054180   -7.25340780035437
C           6.35533535825286    4.89149913445795   -7.64447575709815
H           1.25729426580405   -1.23559929216268    1.23882417402506
H           2.56952864932817   -2.13000968556323    0.42866171492620
H           1.02417149365852   -1.84736811324892   -0.41954414953727
H           4.23008044787963   -1.33806636221262   -4.12108865674691
H           2.90227246975554   -2.18893586045374   -2.05084069212324
H           7.17951175635218   -0.81254135108173   -7.19209499784475
H           6.96837900716362    4.99242437941348   -8.53755294295779
H           6.75383586610876    5.51462155964629   -6.84233806648660
H           5.33056928662931    5.20280943617663   -7.85235982514205
