39
         -68.731739915262          0.000476979899
C           0.38525984503954   -0.52704626285343   -1.87847365432672
C           0.20930843089640    0.85263583887991   -2.08073113112306
C          -1.06619692274079    1.26082513263158   -1.84467122443132
S          -2.08759467047141   -0.03563813714686   -1.36854588346941
C          -0.76584090269120   -1.16669202970506   -1.48894267356213
C          -0.95989401140850   -2.54812721963375   -1.20875471701262
S           0.34746824391221   -3.68501278879247   -1.33679554268430
C          -0.71040240446746   -5.00223161610768   -0.88645856622558
C          -1.99705641632205   -4.54388014150507   -0.64578461084549
C          -2.13133023081491   -3.17364646204966   -0.82448087481883
N          -0.15343499829169   -6.21752359073439   -0.77553961203439
N          -0.95507704990514   -7.21024710793521   -0.57625560861333
C          -0.37405723270483   -8.41606015710652   -0.38702122057865
C          -1.11633754007221   -9.56432099334390   -0.19372830135021
C           1.01578067657324   -8.81622512524379   -0.31639932746718
C           2.21218577286350   -8.12064221342508   -0.43433544822981
C           3.39262640277783   -8.82550316545677   -0.30842498836566
C           3.38982652750571  -10.19722755479198   -0.06651073773726
C           2.21069950218447  -10.90897531250934    0.05233749404495
C           1.02214902913175  -10.20688686091070   -0.07780130867956
N          -0.29876275453110  -10.64001266855624   -0.00934702222585
C          -0.75596454443111  -11.92253583540864    0.20456036137766
C          -2.03651808389068  -12.39671391484869    0.33038730166915
C          -1.91067884998578  -13.79208222627966    0.52924056313653
C          -0.57988620982969  -14.06184279348925    0.51055820034015
O           0.13037167499453  -12.93042751554688    0.31336443136953
H           1.31790673888979   -1.04554566788340   -2.01152462562167
H           0.99743190359100    1.51593859716346   -2.38942007615083
H          -1.47591802355969    2.24830085227621   -1.92123486987377
H          -2.78331175802676   -5.21190008976526   -0.34452154206392
H          -3.05086013583606   -2.63092655366052   -0.68725095268755
H          -2.18288942397709   -9.66227122365044   -0.18405877921939
H           2.20118977078652   -7.05899997813149   -0.62059888303370
H           4.33653816217320   -8.30850220628827   -0.39682099002479
H           4.33013263905669  -10.71927683558404    0.03109834856697
H           2.22351978720190  -11.96982452046732    0.23941744802115
H          -2.94660065876034  -11.83668764899770    0.29091138650129
H          -2.70873545249478  -14.49175345605319    0.66661941441591
H          -0.02383683236660  -14.97053054708609    0.62030822301396
