32
         -59.877185994431          0.000842582030
C           0.79215515743120   -0.35005328027432    0.29330726533591
C           0.48425140282452    1.02367159116653    0.26332939107746
C          -0.85278569495170    1.10353845777674    0.00276740231297
O          -1.38958891948977   -0.11687631671782   -0.13138193610887
C          -0.39017674797856   -1.01443050010265    0.04591060616445
C          -0.67374027823646   -2.40977460492894   -0.04200968958495
S           0.56892908803430   -3.58698609881127    0.19213178748172
C          -0.57385557097462   -4.88553204424374   -0.08185174904971
C          -1.84552529627998   -4.38495653249606   -0.33341829501819
C          -1.89891104657290   -2.99989826803775   -0.30937955193998
N          -0.09112987957094   -6.12999356314746    0.00022064796001
N          -0.90471845835555   -7.10253703461511   -0.24030720537770
C          -0.35050287878313   -8.32968688436707   -0.10276102409070
N          -1.05787018536661   -9.41608727984038   -0.38095164275184
C           0.96732957247373   -8.71323674819198    0.34162254937327
C           2.16339206113540   -8.15829566449355    0.77853295441016
N           3.17342033195935   -8.94572213310694    1.10357577470515
C           3.01729570308073  -10.26208097268630    1.00751617863532
N           1.94744813577708  -10.92505066353153    0.61540977370465
C           0.93338086481447  -10.13021750023528    0.28545302836483
N          -0.29737674867263  -10.48492095853852   -0.15259956482401
C          -0.78032100175430  -11.81564338701321   -0.37574875938568
H           1.74546643002659   -0.80457093407301    0.46967352680639
H           1.16014921866915    1.83983991425479    0.41402337777504
H          -1.51092419480956    1.94272389928186   -0.10713642719333
H          -2.67671519698015   -5.04041550973929   -0.52081920337228
H          -2.78739545020875   -2.41834901722915   -0.47935125630941
H           2.31596552916494   -7.09163737784110    0.86799207493474
H           3.87305981851337  -10.86257238005709    1.28634195428695
H          -0.00516666812674  -12.50784693598749   -0.05354053185676
H          -0.99707147237780  -11.96391483874970   -1.43494871926988
H          -1.69507762441601  -11.97858643342432    0.19476726280490
