34
         -58.984456936868          0.000417048723
C          -1.26708044970838    0.09183777613626   -0.17422674232974
N          -0.59462028019168    1.23591201741735    0.06988834502225
C           0.60849596669321    0.87878324981260    0.43217255242327
N           0.75422871774552   -0.46451671136860    0.43650736890127
H           1.57464086732228   -0.99905380938475    0.67236333552502
C          -0.44789911332061   -1.00304129999537    0.04609251788658
C          -0.68754938852352   -2.40183203413741   -0.06950635195122
S           0.54785399616584   -3.56642474232194    0.30304533417688
C          -0.52960508624893   -4.88715000044377   -0.08402860353147
C          -1.77057056975600   -4.41027803439004   -0.47597147725236
C          -1.85634328375211   -3.02371322831819   -0.46651058304510
N          -0.03267136145867   -6.12458124176914    0.05460172195145
N          -0.82183935332595   -7.10208524377696   -0.24495792737191
C          -0.29661517733194   -8.33459158223286   -0.08127893879756
N          -1.04175989517231   -9.39784359654824   -0.37151810717162
C           1.00113597667834   -8.76546791401575    0.38254848594584
C           2.16734316428894   -8.14342622824124    0.81721145229961
C           3.22299078264285   -8.94792849396956    1.18752711062914
C           3.13742574567048  -10.34395644063470    1.13338407057433
C           1.99425384998101  -10.98296779127830    0.70679113195975
C           0.92586088490363  -10.17492450306808    0.33089187830976
N          -0.32302529286485  -10.48146094986745   -0.12986884804777
C          -0.87232993064626  -11.78575673947232   -0.34904584605317
H          -2.28990402122964    0.10950600423851   -0.49017727555386
H           1.39353875003524    1.55826979976046    0.69682196921419
H          -2.56248134270813   -5.08280820784781   -0.75122613947919
H          -2.73745484258536   -2.47178836356019   -0.73940313998918
H           2.22781560506340   -7.06789738652214    0.85709029556844
H           4.14293478859695   -8.49733352948603    1.52947955947683
H           3.99174262092329  -10.93202145183978    1.43490018077521
H           1.92955103207538  -12.05953233371089    0.66615054899999
H          -0.24762910762185  -12.35090745049775   -1.04333757366672
H          -1.86623663077134  -11.65933831180544   -0.77170424544239
H          -0.94422762157075  -12.33562122685725    0.59195394004499
