41
         -71.318718689403          0.000826090538
C          -1.12018542990364    1.66719154861395   -1.64510221366964
C           0.14158483668156    1.71390628628530   -2.05679151253041
S           1.20827704700181    0.31731658141421   -2.20234780854151
C          -0.04025379951971   -0.92690691593753   -2.09476193795144
C          -1.28393405019550   -0.71998170788451   -1.68054052058083
N          -1.81093749443105    0.50927434605660   -1.28544213667831
C          -3.04484379402654    0.58741431236553   -0.69646288772177
S          -4.06364495377634   -0.81793560839249   -0.55590725690373
C          -5.31899463088258    0.12880587701218    0.23135735950207
C          -4.91901451977203    1.44603673932910    0.36082741342610
C          -3.64931704388965    1.70327095095394   -0.14687716082132
N          -6.40950591866132   -0.54275754599718    0.60864216243394
N          -7.38883713812035    0.13944418955736    1.10896492669463
C          -8.45124387302515   -0.58974837216523    1.52533444777538
C          -9.61170859998352   -0.00960661796252    1.99356007543301
C          -8.65256071436259   -2.02122477707499    1.61116001795382
C          -7.84975953289345   -3.11639397875692    1.31657322513292
C          -8.34816346376645   -4.37948985022338    1.56367598202892
C          -9.61533288303940   -4.55930882399888    2.11457508754889
C         -10.43090215921497   -3.48446577471426    2.41298017292189
C          -9.94791356457852   -2.21441134058365    2.13696726428975
N         -10.52095692773087   -0.96657042787265    2.34154085466160
C         -11.79333645478836   -0.70269951871369    2.80185421958916
C         -12.94020585020883   -1.41773351866419    2.60491782544751
C         -14.05927745328943   -0.82866943151227    3.23174381588378
C         -13.75868968457772    0.32055810176561    3.88482856162504
S         -12.08805613925222    0.71769567253580    3.76853997945838
H          -1.70499325526605    2.57320440176506   -1.61408830897461
H           0.60148426705899    2.63876319846963   -2.35569035574893
H           0.29351180804736   -1.89844480593819   -2.41133344879920
H          -1.98680407485395   -1.53940535582530   -1.64816339393532
H          -5.55058373584421    2.17713464671120    0.83194935427469
H          -3.18525130191936    2.67118412372289   -0.08876524013675
H          -9.84942217959861    1.03320488903132    2.07761854470350
H          -6.86274840464911   -2.96589869752739    0.91022188119389
H          -7.74408331992113   -5.24636037824586    1.34003316674733
H          -9.96725727503654   -5.55982065607589    2.31832580901250
H         -11.39769430685405   -3.63693596251152    2.86640561447796
H         -12.99338440751789   -2.30678523227521    2.00472775869691
H         -15.04973483739312   -1.24395942497920    3.18382488139301
H         -14.41240478604393    0.97199885824558    4.42876378068481
