34
         -62.653238062467          0.000258692978
C          -0.54500211839423    1.32034027267177   -0.27793441202765
C           0.77886765961842    1.36149148452981   -0.37442280015198
S           1.87181135551688    0.08821850457632    0.16670868637189
C           0.65824049099751   -1.17694965149563    0.36677426476677
C          -0.65325528584905   -0.97512132602512    0.39235574367761
N          -1.28512828480813    0.26016573158223    0.24776155426570
C          -2.62622959667633    0.39418194824664    0.48436319659451
S          -3.61848974830563   -0.99220641645533    0.83989341664977
C          -5.04664036624965    0.02357657451832    0.98108892019667
C          -4.71880904039190    1.34923271112114    0.76084035247564
C          -3.37067227477724    1.56062536420743    0.49340692336352
N          -6.17839583222609   -0.59705565943192    1.32075773763148
N          -7.26204266281291    0.10837987060011    1.35499677636041
C          -8.36979240864950   -0.55300510247133    1.77281205252541
C          -9.61788579863408    0.04538605565684    1.81293764656437
C          -8.54325584663268   -1.90163937569440    2.26794248850839
C          -7.68171952427780   -2.97428208553433    2.47481438784504
C          -8.20164637870413   -4.14564631704620    2.98594403180241
C          -9.55718666398168   -4.27111720905088    3.29493740313990
C         -10.43709083177576   -3.22577939366072    3.10216064448651
C          -9.91379300351144   -2.04921515038006    2.58821592679244
N         -10.50158496918646   -0.85542497091572    2.29317704125579
F         -11.83892967316612   -0.58884749842664    2.45456090495995
H          -1.13308965404610    2.13827873758979   -0.66343384544099
H           1.28353976273440    2.19772787130942   -0.82391101641164
H           1.07781427790943   -2.16228061686378    0.45987733134448
H          -1.32660107892868   -1.81041906179807    0.51593363465144
H          -5.46156226232693    2.12399574587445    0.81806195672632
H          -2.95591785776191    2.53998402609466    0.33779214308419
H          -9.91465469702061    1.03467355367958    1.52998117690417
H          -6.63551135721830   -2.87525776475054    2.23512421997848
H          -7.54811241988773   -4.98878673605913    3.15322216032975
H          -9.92407736212358   -5.20474137680882    3.69402064463692
H         -11.48615654845130   -3.31330273938890    3.33985870614257
