22
         -40.592235073577          0.000341778535
N           1.18009896265355   -0.32515827184179   -0.00684273115802
C           2.31698772566131   -0.16298487965157    0.00613242467688
C           3.69976426118923    0.02221003661741    0.02310638126951
S           4.39356066067990    1.60998374852477    0.03380472588188
C           5.99379902082619    0.92500574872894    0.05139450501407
C           5.95780995072454   -0.46119658554767    0.04932496730752
C           4.66416542230096   -0.96835323836828    0.03341989649796
N           7.02257935499877    1.79938101753874    0.06140500247545
N           8.20047947497488    1.28901947797966    0.07710048747184
C           9.22017002559530    2.18155976463351    0.08290700067388
C           9.21565866468990    3.60756170444654    0.07379668658609
C          10.53841353760253    3.94771357291692    0.08484579016565
N          10.47935916216735    1.72972634076997    0.09837659994300
N          11.25005100892278    2.79101728571517    0.09925590170957
C          12.67723118628001    2.65794398515786    0.11429790482284
H           6.85825358748311   -1.04773443987388    0.05906933277784
H           4.41728679996706   -2.01554872819694    0.02924135015556
H           8.35478420760925    4.24175939291567    0.06114136288800
H          11.02559155145484    4.90240740474942    0.08351468393474
H          12.91108344339852    1.59559785257660    0.11822486646475
H          13.09604489196970    3.12710153754936    1.00646008358846
H          13.11432709885039    3.12482727265926   -0.77019722314749
