28
         -54.189155544892          0.000946134970
C           0.96963569245354   -0.20465835847352   -0.57788695126951
C           2.40682256618410    0.02943118643847   -0.29049461384817
S           3.29580101906644    1.23110987141672   -1.14641556221821
C           4.75344548260511    0.82880787904562   -0.26550017773802
C           4.51374014805640   -0.18961822584810    0.64465805519612
C           3.19243143112972   -0.62939711831147    0.62579029175599
N           5.83603499927729    1.57223484003008   -0.52627519986464
N           6.95006110486032    1.21782358162419   -0.02518838803914
C           8.01370423737557    2.04103470260056   -0.07658242584717
N           7.97531294973889    3.34000708060037    0.15424921984078
C           9.37784602488617    1.58464763264641   -0.15952522138852
C          10.10320540281753    0.41968610314143   -0.37961315879950
N          11.41721831764042    0.44648993021069   -0.38963309903544
C          12.04520836886521    1.62067952714414   -0.19230404792898
N          13.38610945758213    1.58901824851982   -0.20279083087564
H          13.89626312332913    2.44640581091386   -0.09763426040891
H          13.85023593106285    0.72199171298516   -0.39904236043258
N          11.46642110484870    2.80813971491847    0.02036831086333
C          10.15028181081775    2.75208582008093    0.02991413879203
N           9.26419208818350    3.78169020346279    0.23403012413969
C           9.56641197070274    5.03991416441173    0.51576180931969
N           9.84074478954268    6.12593942784819    0.75111904820054
H           0.41293040998314    0.73015836506274   -0.53674105456586
H           0.54948778561543   -0.90188161405917    0.14277628730096
H           0.84473100171977   -0.61790407282573   -1.57887786348043
H           5.28524565009513   -0.56774245696512    1.29070282256509
H           2.81260847960856   -1.40922421810733    1.26244901495195
H           9.63402865194586   -0.54066973851672   -0.54429390718597
