29
         -53.445643255273          0.000565765818
C           1.31637511602269   -0.41683658147792   -0.82692816304077
O           2.43276565094553   -0.12802403425797   -0.01081963211163
C           3.04914036933126   -1.16848507288374    0.57163653418188
S           4.41246273938566   -0.80762151118457    1.56950071271662
C           4.62505267146175   -2.51986630271507    1.91938892897245
C           3.66598590480529   -3.27489436637037    1.27204808979828
C           2.77564685376649   -2.51498387328879    0.51095209928430
N           5.64068456814262   -2.85032104578043    2.72938248290979
N           5.80146540705366   -4.10063151043888    2.99202163156274
C           6.84513262271602   -4.37276426175140    3.81918293816008
C           7.78916725471732   -3.50069283818609    4.44212109589946
C           8.60356073436767   -4.32567645701735    5.15915773974799
N           7.09744409729314   -5.63712577702815    4.15558388550179
N           8.15422434179539   -5.59783734805242    4.96007287620100
C           8.66141612207880   -6.76706164598388    5.48289384737636
C           9.70579989599071   -7.05211395065478    6.33063315000998
N           9.77025965344359   -8.39151832785220    6.52702043735884
C           8.80226852297047   -8.91406714542744    5.82734409903835
N           8.09117886337672   -7.96855938701035    5.16802545898735
H           7.29451127208337   -8.06174111568726    4.55740824919843
H           0.96515638697913    0.54427514600071   -1.19668604285245
H           0.52279712683740   -0.90239356171792   -0.25176755950996
H           1.59853037450223   -1.05471881562339   -1.66952499796554
H           3.63700720268362   -4.34508005120703    1.36748212253742
H           1.96826852324744   -2.94031945714852   -0.05699613308951
H           7.82273453233867   -2.43628755094916    4.34645471144912
H           9.45029635642758   -4.12868969659960    5.78420097594289
H          10.40107231967066   -6.38917554794888    6.80249729197554
H           8.58532451556560   -9.96118791175692    5.77193316975946
