27
         -49.168056038740          0.000756892077
N           1.05454195979276   -0.20307076132393   -0.21964406584819
C           2.40795631054154   -0.07038704457782   -0.12059406991883
S           3.14744192951150    1.49433166983642   -0.11118145449828
C           4.75161170026268    0.76418363648710   -0.06449398983661
C           4.65286082923679   -0.61694273688871   -0.05539653491732
C           3.34336891580794   -1.08542538516353   -0.08647601131932
N           5.78545775202186    1.60698100631508   -0.05026735253649
N           6.97247249479079    1.10243667437586   -0.00597902269769
C           7.96744818961407    2.02879585372551    0.00342576542105
C           7.89383557466159    3.45741155022347   -0.01467385631008
C           9.19060846366775    3.86852911361369    0.00763851003047
N           9.23721931798510    1.63325685536011    0.03464698459918
N           9.96684478899596    2.74431404508092    0.03641490111212
C          11.34082669493866    2.68320243964580    0.06141101697172
C          12.11359892342221    1.55741135868852    0.08249680525221
C          13.49144036116486    1.85805063850230    0.10333401714667
C          13.74539190931071    3.19073538986869    0.09802014144910
S          12.30157561367052    4.12984981754655    0.06728252444460
H           0.49648458930948    0.61051736960437   -0.02235164483629
H           0.66075326248928   -1.08854925082810    0.05437598586519
H           5.53289818238996   -1.23351879297235   -0.02684382521148
H           3.07152570333139   -2.12612051088486   -0.08746438952841
H           7.00010611238797    4.04408059774092   -0.03948911004179
H           9.63275127006119    4.84517086739976    0.00538098103002
H          11.69111387962466    0.57071731327181    0.08227955383896
H          14.26197283507399    1.10869593516747    0.12124524836298
H          14.69074243593471    3.69486235018514    0.10996289197658
