33
         -58.766987066730          0.000907465117
N           1.17849059484921   -0.59098771585327   -1.07562225876561
C           2.51764355509123   -0.36329536588216   -0.95990424845700
S           3.14952985551879    1.24795991040357   -0.97489134484788
C           4.78033831551096    0.63905108678526   -0.70115349947298
C           4.77099921038943   -0.74295424343142   -0.61384264281386
C           3.50677225696286   -1.30461462252563   -0.75701485992322
N           5.75049105594826    1.54870617061863   -0.60403118459313
N           6.95749049065614    1.11026460740716   -0.44461830224094
C           7.89914979490173    2.07083555144915   -0.31220446159929
N           9.16884142510728    1.71500191516587   -0.20317206699340
C           7.78661012079685    3.51036741186328   -0.23804365439509
C           6.73588502848926    4.41888495282555   -0.29153566706538
C           7.03943577716456    5.75883420358968   -0.18218095701455
C           8.35735815714559    6.19324755943500   -0.02015290370900
C           9.41424338314413    5.30915033599353    0.03757025988971
C           9.11565401064945    3.95636145898027   -0.07406736895672
N           9.90348408762672    2.82519986848282   -0.06291776746791
C          11.26597629411667    2.68817139920221    0.06455794370138
C          11.94268322276210    1.49894683393050    0.03945464169815
C          13.33234036631705    1.66652569087152    0.19700199748359
C          13.69813824216021    2.96495722249370    0.33925500123970
S          12.34472588744127    4.03010395189456    0.28439311507195
H           0.61262829223948    0.16297132998055   -1.42671711313380
H           0.89301864361104   -1.51795579756900   -1.34532208489787
H           5.68009667117245   -1.29159337636031   -0.44812399612272
H           3.30449483279279   -2.35976153785302   -0.71493532601202
H           5.72393213177379    4.06942472247650   -0.41685524083342
H           6.24804139016481    6.49246994372993   -0.22185368751139
H           8.55463365243751    7.25175373027202    0.06285696059336
H          10.42400096160066    5.66370833550812    0.16471498978305
H          11.44104312059894    0.55886167359175   -0.08798911515928
H          14.03109144496672    0.84966590541339    0.20355833997804
H          14.67712772589226    3.37832688710748    0.47400650254654
