32
         -60.674426774285          0.000674747145
N           6.12206016711591   -5.93441803398525   -0.11146400036557
C           6.42049010195590   -4.82539619891483   -0.09309438510540
C           6.76238560110817   -3.47291239225046   -0.07075192964433
S           8.41650429159145   -2.95956135571607   -0.06299500593736
C           7.91317821031795   -1.29038508938191   -0.03911103435445
C           6.52778480182780   -1.17581032673160   -0.03497531305674
C           5.88231200808836   -2.40439893508757   -0.05349452894571
N           8.89892616182522   -0.37928680262807   -0.02788754746036
N           8.54464277754302    0.86042903145035   -0.02390068392885
C           9.54107304866042    1.76760312747330   -0.01359969696567
N          10.84850104898909    1.51921208225060   -0.00057591411187
C           9.31693551056107    3.18981310041024   -0.02176746206014
C           8.19611592750295    4.01257043702996   -0.03690042547322
C           8.40137836628927    5.37503171515572   -0.04241076094657
C           9.68998029541850    5.91953336427250   -0.03363864751016
C          10.81608549282682    5.12427447748621   -0.01861813672961
C          10.61177294441783    3.74974067977340   -0.01258183490617
N          11.48681370721759    2.68320328013205    0.00034435354264
C          12.86193690719126    2.68841883154310    0.01181052991703
C          13.72822400356000    1.62708667082400    0.02804610636031
C          15.02048453466971    2.19976131188692    0.03185529606736
C          14.84309072344116    3.54836994678137    0.01889400809611
O          13.52844150157363    3.85785605992476    0.00721970601853
H           6.04036189866483   -0.21795477164133   -0.01972864480387
H           4.81426587603339   -2.53573918522259   -0.05469992408571
H           7.20675490288640    3.58442342110421   -0.04251933301727
H           7.55374017633368    6.04372154675533   -0.05315795631278
H           9.80355138565302    6.99320586216766   -0.03964404443719
H          11.80706544495368    5.54699744245009   -0.01284172482371
H          13.45548159184047    0.59352286143245    0.03553316587361
H          15.95280242331723    1.67452007574310    0.04383290145844
H          15.53339816662516    4.36746776551163    0.01716286764915
