34
         -63.327911247956          0.000821264284
C           0.88913032148431   -0.35480152148772   -0.07201180771118
C           0.58382641693678    1.02060432089720   -0.06946395306193
C          -0.77634884726617    1.10356340650470   -0.01655793095460
O          -1.33029507634993   -0.11694627099161    0.01444038426783
C          -0.31803361675190   -1.01675574285190   -0.01957716873891
C          -0.61934332033388   -2.41172927050705    0.00158442084812
S           0.63534707400639   -3.60043827789467   -0.03923823673038
C          -0.54649993351798   -4.89080055661452    0.01456540565954
C          -1.83735597964987   -4.37822420776861    0.06120650970794
C          -1.87563110601797   -2.99179647875328    0.05390486778666
N          -0.06677930727838   -6.13943288298842    0.00474978750699
N          -0.92838316462976   -7.09792883661128    0.04417853258807
C          -0.42980036424406   -8.35451022211782    0.03767444389989
N           0.85001774260580   -8.71652235588325   -0.00270161818497
C          -1.25841170502550   -9.52596668272604    0.08016906563291
C          -2.59634811524366   -9.90108948920582    0.13963971052261
N          -2.93022686063471  -11.17143781797020    0.17159386325411
C          -1.95602891646080  -12.10298610467660    0.14411392203824
N          -2.37185810185527  -13.38695339867259    0.13395372714288
H          -1.68985704602026  -14.11097377840229    0.26939639471275
H          -3.34099141212604  -13.56705306935141    0.32347144619438
N          -0.64285480916958  -11.88583612801240    0.09658894053028
C          -0.32915343491608  -10.59591621919887    0.06164598524390
N           0.90650535703780  -10.04703749427904    0.01188820827021
C           2.15648677438974  -10.74662489560722   -0.02519829468136
H           1.85687745063428   -0.81101140403341   -0.10700944272126
H           1.27687249758047    1.83577342385592   -0.10259435203030
H          -1.44207906574953    1.94361365022783    0.00386623641377
H          -2.69556812291402   -5.02446285063720    0.09840485650801
H          -2.77575094547142   -2.40395519532353    0.08481150072527
H          -3.40563052068064   -9.18418368049363    0.16645267119346
H           1.93911383185475  -11.81226888747886    0.00268200304660
H           2.76849603395205  -10.46322547667899    0.83235178155004
H           2.69799627182504  -10.49637560426751   -0.93871186042955
