38
         -73.105645635560          0.000334750809
C           0.88716615545940   -0.41802457937474    0.12469544590075
C           0.64644262732983    0.92953309896613    0.13767164043521
C          -0.75815963155358    1.04030835842955    0.13028412926720
N          -1.32759396958019   -0.14201734636378    0.11409293134694
N          -0.32667956495465   -1.03165498721900    0.11067262920921
C          -0.58895029217311   -2.37854022897497    0.09428895832039
S           0.68052579670264   -3.55115774904739    0.08718274701930
C          -0.50059503703169   -4.84822162347087    0.06700452597274
C          -1.79245785776449   -4.34129784857824    0.06635430957924
C          -1.84270898263882   -2.95267292307518    0.08172707487101
N          -0.01455160713088   -6.09312811919938    0.05723426208825
N          -0.87781029219375   -7.05423023533567    0.04229307008344
C          -0.38079026929429   -8.30804735127640    0.03620138174801
N           0.89939441891806   -8.66933377266302    0.04594300994656
C          -1.21094707620850   -9.47908614404169    0.02092301971653
C          -2.55604786234205   -9.83734995054172    0.01062084263502
N          -2.90559170901951  -11.10214263088770    0.00150517796063
C          -1.94120261443970  -12.04536818268665    0.00134438658001
N          -2.36539058546818  -13.32042406511880   -0.03130687606524
H          -1.69339258506813  -14.06150983874787    0.04208453404976
H          -3.34941972510770  -13.50321837800665    0.03329533059074
N          -0.62268104367391  -11.84025146096415    0.01535750941378
C          -0.29588176768194  -10.55771452126675    0.02285201438001
N           0.95260832721339  -10.00870812428012    0.03799655872504
C           2.16653921845878  -10.65423103073381    0.04650870861582
C           2.51924035101542  -11.98299412309564    0.03785248221170
N           3.87022654428837  -12.08302217829639    0.05427581314592
C           4.33202706330763  -10.86330631429647    0.07227741096862
N           3.33483645539223   -9.94580919704407    0.06860433339031
H           3.38025563702376   -8.93887241445093    0.07811632169935
H           1.79702824205913   -0.98276833179937    0.12431553050642
H           1.36264836517575    1.72433730810457    0.15056646539621
H          -1.35776364363574    1.92836931644821    0.13610043042380
H          -2.64663193418098   -4.99333218113253    0.05497133194980
H          -2.73802647967555   -2.35908728319723    0.08413136725647
H          -3.35490294235418   -9.10867570367945    0.01184402245486
H           1.88006299700757  -12.83996168749288    0.02046649572144
H           5.37069527381955  -10.60299757560888    0.08835067248479
