39
         -69.209033877474          0.000642523162
C           0.37687496637826   -0.46830975030361   -1.91556953413691
C           0.00711632353849    0.88614078846709   -2.03905049261547
C          -1.30019263992973    0.95519958621930   -1.65971108799419
O          -1.76352777795722   -0.25548663566564   -1.31268168773859
C          -0.74251596106780   -1.13310191313981   -1.46667815954529
C          -0.95420253944802   -2.51341116720417   -1.17113319037208
S           0.32052765584548   -3.67129638138677   -1.36015403143519
C          -0.74419195314245   -4.96804037425985   -0.85960703081181
C          -2.00684950607447   -4.48180270135864   -0.55592230331073
C          -2.11999993345130   -3.10747305854181   -0.72736131746987
N          -0.20177980985153   -6.19006788568135   -0.76564687868948
N          -1.00039690190067   -7.18546093218141   -0.57605260085250
C          -0.40721553409847   -8.38711635488028   -0.38967833845536
C          -1.13221525205685   -9.55757026664165   -0.26873785937406
C           0.98420416851515   -8.75782503704271   -0.24718134472202
C           2.17177374041641   -8.03560166082015   -0.25606095668354
C           3.35299196360106   -8.72085341033422   -0.05693067278135
C           3.36342504041325  -10.09772572110163    0.16276290094809
C           2.19528066058873  -10.83509194000896    0.17458380895525
C           1.00834748788601  -10.15370704445817   -0.04715043368957
N          -0.29871575712481  -10.61775186222915   -0.07492609224464
C          -0.70459839958830  -11.93131726072765    0.06539691578196
C          -0.13905874184849  -13.12499341589605   -0.31294459491020
N          -0.94660529069394  -14.15123885191646    0.05329557876660
C          -1.97914433785037  -13.61666827784281    0.63500046209998
N          -1.89114140899603  -12.26220997404493    0.67345134400078
H          -2.54886854632931  -11.61527873312299    1.07703480577502
H           1.33001511747154   -0.90859342242097   -2.12493801480719
H           0.62625995870947    1.69666632685221   -2.36433465526003
H          -1.98546630945064    1.77714400746418   -1.59614267757635
H          -2.79236323788082   -5.13104971192796   -0.21368759800795
H          -3.01655931591418   -2.54176623919543   -0.54551100986601
H          -2.19491309358416   -9.68242738075200   -0.35137270035761
H           2.15259909762274   -6.96949652476568   -0.41406269815305
H           4.28942048399811   -8.18325208842374   -0.06217163020845
H           4.30477156345357  -10.59923354795699    0.33100163033971
H           2.20797327139008  -11.89667543738037    0.36352455635584
H           0.77508411995138  -13.30344570584396   -0.83978052578857
H          -2.80891337153969  -14.16120003954154    1.03703811483656
