31
         -63.952873782063          0.000947628337
C           0.88475119420959   -0.41194058547745   -0.04078868272295
C           0.65595215422646    0.93704851057733   -0.03732398299427
C          -0.74790651373682    1.06061315338201    0.00135397112830
N          -1.32767280864798   -0.11580761256701    0.01959953760744
N          -0.33483936084061   -1.01527652298277   -0.00591929539631
C          -0.60855529758233   -2.35909790628074    0.00451678321850
S           0.64736913669042   -3.54266955271844   -0.03299432891936
C          -0.54658055057893   -4.82762887609752    0.00702791182052
C          -1.83394381394822   -4.30741180358914    0.04619594451633
C          -1.86998799926961   -2.91975090802007    0.04484802109357
N          -0.06970736598263   -6.07448227875974   -0.00094496889776
N          -0.92638082095629   -7.03612487250945    0.02868898948054
C          -0.42710245197153   -8.29143011153888    0.02910862179814
N           0.85474668842953   -8.65347189061372    0.00530314104861
C          -1.25466682780875   -9.46273298050883    0.06483002160450
C          -2.59971943208700   -9.82852240547525    0.10278268733398
N          -2.94512651126388  -11.09216780930730    0.13366112750887
C          -1.98106971859650  -12.03808667242976    0.12779983779851
N          -2.40326692128785  -13.31072210871405    0.15560200451209
H          -1.72717665157982  -14.05179931812013    0.17773981517199
H          -3.38740245583487  -13.49667673799595    0.21027946526311
N          -0.66325701273368  -11.83114365952717    0.09183595033417
C          -0.34144986041799  -10.54993577584630    0.06125962836715
N           0.87287478806313   -9.96660813370203    0.02366957788378
F           2.07785486640687  -10.60889582249557    0.00850901847308
H           1.78886827453675   -0.98522055153429   -0.06435099220128
H           1.37842445829707    1.72589619746250   -0.05885961692961
H          -1.33868297497723    1.95443743677635    0.01569660476763
H          -2.69440410684907   -4.95072873056659    0.07477911119378
H          -2.75792846600340   -2.31586847344324    0.07178741865652
H          -3.40035363790483   -9.10211319737684    0.10890667748041
