31
         -60.152539375948          0.000839919255
C           0.87239830343763   -0.41509962584391   -0.07298754619201
C           0.57043227969167    0.96062690793466   -0.05818570240624
C          -0.78950376243323    1.04616740653340    0.00227036858428
O          -1.34619962542355   -0.17299437361062    0.02577127478200
C          -0.33615091705608   -1.07491800249167   -0.01993003359166
C          -0.63800973581280   -2.46971449833763   -0.00517016319240
S           0.61636959332955   -3.65710507677064   -0.06248272242113
C          -0.56410988075907   -4.94765105274431   -0.00072836846696
C          -1.85535482500574   -4.43613583013329    0.05906793716039
C          -1.89434243207667   -3.05033400174821    0.05631903549858
N          -0.08519416786039   -6.19669334742228   -0.01450489384002
N          -0.94531705972129   -7.15424041155441    0.03380024964393
C          -0.44389981087898   -8.41289101910663    0.02838095106206
N           0.83395240675573   -8.77386244441973   -0.00716073822178
C          -1.27683728003543   -9.58207843302866    0.07023661936676
C          -2.61909665890280   -9.94381702066378    0.12204954448617
N          -2.96518340471537  -11.21053877858004    0.15006959191138
C          -1.99882191464255  -12.15060136865072    0.12712439544581
N          -2.42289880176837  -13.42831286549352    0.13032894421401
H          -1.74744535607211  -14.16526384028169    0.20184310476569
H          -3.40227491393233  -13.60879077760140    0.24681932188057
N          -0.68167152255176  -11.94487807381245    0.08533381293740
C          -0.35655402911336  -10.66048079385436    0.05521903835360
N           0.87833950653254  -10.10946467702197    0.00963306190466
H           1.76708293514110  -10.58425087872881   -0.01221362689218
H           1.83884508301088   -0.87341381022750   -0.11620096400345
H           1.26536895900227    1.77429219744480   -0.08795091779519
H          -1.45305281405562    1.88768599488490    0.03264796013972
H          -2.71243652204687   -5.08345504072396    0.10252201481579
H          -2.79428452838317   -2.46303444017824    0.09782957106256
H          -3.42103910365390   -9.21865202376718    0.14399887900748
