27
         -54.424698518110          0.000439560452
N           1.13514378430527   -0.18756687981394    0.05558632491832
C           2.27450139316296   -0.04153777812376    0.05658862366711
C           3.66034785086860    0.11523042455366    0.05726188808913
S           4.39333582800129    1.68567083333533    0.06024562322152
C           5.97814797908193    0.96226110120582    0.06429090700822
C           5.90512497849374   -0.42559457056208    0.06016819050296
C           4.60072837063386   -0.89990390453496    0.05598386194819
N           7.02029331284400    1.81038539645694    0.05211444716548
N           8.19233711577163    1.27131985259066    0.08599353417548
C           9.24978491297701    2.09669597129367    0.05433163736955
N           9.23955241887396    3.43725677606796    0.00492062298237
C          10.60717636236768    1.63715165935421    0.08051800332537
C          11.34966456746549    0.45865058100357    0.13945064041272
N          12.65981869362137    0.50089797265869    0.15535975777247
C          13.28252403533540    1.69873705737141    0.12103327630670
N          14.62604904393599    1.66157689503688    0.18131271648214
H          15.14387292624451    2.51040738101924    0.04758602817684
H          15.08000656439334    0.76880289314715    0.11986055266222
N          12.70128834534767    2.89658500768914    0.06184407908483
C          11.37590444505029    2.82447541691925    0.03412329767429
N          10.48881350663802    3.84988775737334   -0.01115428814405
N          10.79645751003144    5.18228334077304   -0.15199915324040
H           6.78881302681435   -1.03709196393238    0.05848423441568
H           4.32754386709381   -1.94063648056866    0.05331541776987
H          10.89171037885988   -0.52004899480679    0.17448138131550
H          11.65511654996212    5.39875781382348    0.34473895450930
H          10.00894223182453    5.74803644066914    0.14883944042824
