38
         -72.985059184020          0.000356230732
C           0.93363156250694   -0.45490602750194    0.26024434961470
C           0.86392831299366    0.94729127788116    0.29013238547941
C          -0.41556560513494    1.41080135459555    0.27534319916533
S          -1.56906151121480    0.14148563788030    0.22415489856950
C          -0.30197100949277   -1.05587410786643    0.22245528711489
C          -0.60445317805501   -2.44503701610622    0.18614070557729
S           0.65192557683558   -3.63899892842417    0.19093827207678
C          -0.52887028659174   -4.92863576328809    0.13719479133057
C          -1.82205905510881   -4.41589026340801    0.11710662868042
C          -1.86011418704174   -3.03160483923658    0.14475925477680
N          -0.04564466529947   -6.17297616607255    0.12537867917632
N          -0.90317054942564   -7.13796183769595    0.08811128469602
C          -0.39288211463401   -8.38847618175729    0.07540237055775
N           0.88860656817450   -8.73585442827256    0.07814967935020
C          -1.21432893737405   -9.56671753107951    0.05318728305128
C          -2.55530014710421   -9.93616006776019    0.03383861872695
N          -2.89582555177036  -11.20452837148504    0.01400727257957
C          -1.92276577616035  -12.13738425121738    0.01435975453702
N          -2.33141014584084  -13.41912131386588    0.02431469851445
H          -1.64518761761645  -14.14583666517483   -0.05980469155493
H          -3.31053938001222  -13.61437336790091   -0.07176065686176
N          -0.60690129768762  -11.91996195327349    0.02355872000810
C          -0.28871512250385  -10.63700653085019    0.04494322684139
N           0.95768227634731  -10.07441374990843    0.05928139931639
C           2.18386367623370  -10.70063267811663    0.05744301639396
C           3.43883984672258  -10.15256486447776    0.07281815129491
C           4.32372283340196  -11.25526902228354    0.06276390070696
C           3.54376378095963  -12.37057719808599    0.04227408418477
O           2.23711468201729  -12.04063915004019    0.03872481825679
H           1.84943383843136   -1.01799278442482    0.26563727048933
H           1.72682658007619    1.58785813390157    0.32139710280793
H          -0.75544710883633    2.42712504626094    0.29150311083303
H          -2.68021205993921   -5.06227926389089    0.08408457507025
H          -2.76406617656058   -2.44731156797000    0.13576365064182
H          -3.36028738491467   -9.21421901583624    0.03143022044673
H           3.67086560679301   -9.10927415974146    0.08899164375196
H           5.39336517455590  -11.21775003449908    0.06995353962416
H           3.78087855227050  -13.41516234900716    0.02936750417294
