28
         -48.901126225214          0.000540086990
C           0.88305281612167   -0.10553170340807   -0.09141161181853
C           2.36118092934733    0.05478148623235   -0.06842989828532
S           3.08578525318317    1.61855686162556   -0.06671489338356
C           4.68833450487468    0.91738675972487   -0.03560595158195
C           4.61825138275564   -0.46452683521692   -0.02753883787202
C           3.30713854159781   -0.94041689743789   -0.04617689578680
N           5.71934324391222    1.77793588971912   -0.02547735694530
N           6.90383573259068    1.27687700215354   -0.00262604329619
C           7.90223925079062    2.19894311410044    0.00504652651706
C           7.83893952227550    3.62779260925531   -0.00941366507074
C           9.13980672085435    4.02755600385050    0.00713278898689
N           9.16971354395965    1.79399253287703    0.02857314709176
N           9.90589406055972    2.89681400727707    0.02971875464794
C          11.28035372506469    2.82482845792385    0.05145680900359
C          12.04192194331280    1.69141984206804    0.07144532217195
C          13.42207082244454    1.97958322174381    0.09059347620759
C          13.68790964025360    3.31023383434033    0.08490460340733
S          12.25376459094935    4.26240455177304    0.05598161275977
H           0.39476793350570    0.86461366343738   -0.11562047181642
H           0.54592855503666   -0.64666141156554    0.79269401749215
H           0.57650236778225   -0.67578218791275   -0.96823354318720
H           5.50393102198079   -1.07308171977691   -0.00903309874491
H           3.04953378066052   -1.98536106069754   -0.04368853049892
H           6.95038222232758    4.22213340464022   -0.02899484198397
H           9.58997462822651    5.00039692570126    0.00490037435961
H          11.61181131193800    0.70807009438170    0.07203009090734
H          14.18609071555845    1.22371406564671    0.10781048403780
H          14.63836123813572    3.80447748754344    0.09583763268128
