35
         -58.725919628884          0.000459031716
C          -1.63115895796404   -0.02432252928854   -1.30626742841197
N          -1.03248168965760    1.08613599518340   -1.78829375421480
C           0.13615536343723    0.70467061456427   -2.22835480433068
N           0.33146131855168   -0.62167396678620   -2.05233396091510
H           1.13965207834837   -1.16832889726116   -2.30183462577695
C          -0.80046780140520   -1.12139502501890   -1.45596290711809
C          -0.97624769968662   -2.49261420710961   -1.11262832552355
S           0.26699330505417   -3.67345063802931   -1.41845786469964
C          -0.73639060682558   -4.95130944058097   -0.77478861167054
C          -1.95182098242823   -4.44881908107071   -0.34182186817713
C          -2.08078323945702   -3.07607678962796   -0.52705355588890
N          -0.18903750437754   -6.17393035695722   -0.70082054211601
N          -0.98019780640592   -7.15648662953133   -0.43203078511247
C          -0.39939923115302   -8.36221913355452   -0.24913442337711
C          -1.14082708560291   -9.51330957927668   -0.03217283908940
C           0.98659047146807   -8.76790102570264   -0.20114960650268
C           2.19088965457856   -8.08667450575114   -0.33320237038437
C           3.36396494702163   -8.80402272788428   -0.21956399997936
C           3.35163243220458  -10.17751042566888    0.02179831698516
C           2.16755240489932  -10.87424598006683    0.15748767489275
C           0.98250849810685  -10.16002474630802    0.04472194628159
N          -0.32692280732792  -10.57885920827833    0.13880524060626
C          -0.78616162073061  -11.91912830361421    0.37166480810239
H          -2.61288475317601    0.01832668976684   -0.88106274226512
H           0.86177442384918    1.35315149365423   -2.67678630430523
H          -2.69404880119589   -5.08698833381926    0.10218013009935
H          -2.95294214472604   -2.51068634459297   -0.25250549092289
H          -2.20850966131075   -9.61498182913249    0.00108501183645
H           2.19179580450887   -7.02515913052171   -0.52184807233923
H           4.31283315737171   -8.29812322411141   -0.31865589388757
H           4.28882044267960  -10.70767626896551    0.10588348993858
H           2.17707162844033  -11.93776572664957    0.34620026462818
H           0.06684519850728  -12.58210815291694    0.49222460714877
H          -1.38790600423321  -12.26958981261063   -0.47042861771712
H          -1.39620273136331  -11.96221277248024    1.27691790420527
