30
         -48.815487239535          0.000499705377
C           1.11099648331205   -0.36601121550948   -1.30745839651427
C           2.56260679591318   -0.16497771154816   -1.05930679505436
S           3.22141601301295    1.42821330120716   -0.90707770125196
C           4.82482827279693    0.78031317381771   -0.63789002083333
C           4.80565224115955   -0.59883990828686   -0.67214560672780
C           3.52926206656551   -1.12122288122777   -0.91007024164676
N           5.81228499069603    1.67680165192557   -0.45068145992592
N           6.99304204410336    1.19904204357763   -0.24029345778229
C           7.97682322082962    2.10796808194716   -0.06251797777200
C           9.29479740675085    1.73323854355675    0.16488918114797
C           7.96614354020456    3.55197931568340   -0.06173499250946
C           6.97721172458032    4.51297322226694   -0.24449423229298
C           7.33797811121640    5.84287059691605   -0.17657489310401
C           8.65609913272083    6.23068840288159    0.07159887515302
C           9.65619490710318    5.29794858929232    0.25545780743121
C           9.29595897126250    3.95967266060212    0.18565285451911
N          10.06908663827316    2.82894758305413    0.30930167422415
N          11.42963529990731    2.85174996001739    0.60896400691200
H           0.77349292298182    0.25125193250096   -2.13811154321658
H           0.52986721508104   -0.08512507224851   -0.42892427821022
H           0.91220754272469   -1.41001086464373   -1.53638311494843
H           5.69712600306619   -1.18160808912482   -0.52891444875958
H           3.31967106960362   -2.17525909511181   -0.97258255539113
H           9.69954677623120    0.74176732306754    0.23976339211997
H           5.96041443041516    4.20926111906841   -0.43388613701197
H           6.58696328866282    6.60639963750329   -0.31592842292319
H           8.89631357412949    7.28243248188895    0.12174906233961
H          10.67464724224560    5.59240062315741    0.45779073551591
H          11.95342221749550    3.29765247151363   -0.14305563125495
H          11.76387985695251    1.90114212225568    0.73653431776883
