39
         -68.729273117900          0.000810754500
C           0.39588152137491   -0.45146567620903   -1.89676004853503
C           0.02972214543208    0.90368058230549   -2.02442076637506
C          -1.27569580320117    0.97848438954710   -1.63996751092592
O          -1.74205571395871   -0.22971274105841   -1.28747140761349
C          -0.72408008858581   -1.11095117503978   -1.44118701288926
C          -0.93978873991380   -2.48902417703798   -1.13727181798846
S           0.32992399477975   -3.65297652477645   -1.32298628676711
C          -0.73672694409349   -4.94131464846561   -0.80579438780635
C          -1.99666644951353   -4.44881951735289   -0.50131457674185
C          -2.10610458984634   -3.07569529367392   -0.68483566055577
N          -0.19840563037825   -6.16532772811112   -0.70765739791125
N          -0.99928189325741   -7.15235301779354   -0.48547553981368
C          -0.40918983014971   -8.35609190401673   -0.30490448836747
C          -1.13168224056075   -9.52320322361117   -0.15131125405028
C           0.98665276582253   -8.72950960059649   -0.20943068735904
C           2.17231578036579   -8.00664805076221   -0.25608799663779
C           3.36021543789186   -8.68818389252546   -0.08334251793160
C           3.37677506378136  -10.06172414174644    0.15029460414250
C           2.20918524247216  -10.79963321246940    0.19807385113131
C           1.01514311505335  -10.12445666946499   -0.00225071625856
N          -0.29542816121022  -10.58578041091628    0.00852386867145
C          -0.70771676258517  -11.89348698672704    0.16351377887264
C          -0.10872605861373  -13.03566861262925   -0.28522038143485
C          -0.82583559965769  -14.19780685137856    0.07179985550702
C          -1.95470993044484  -13.93017139170870    0.77378974891484
S          -2.17671062743005  -12.24411930208584    1.03414867152296
H           1.34703899579072   -0.89517347462124   -2.10800454354400
H           0.65004834434457    1.71106428664643   -2.35538836064904
H          -1.95806921071620    1.80291882051347   -1.57713761242185
H          -2.78225922258677   -5.09363784726691   -0.15117280515774
H          -3.00000463429678   -2.50531838820675   -0.50438145492742
H          -2.19631378357048   -9.65568031665578   -0.16812752345446
H           2.14668635615240   -6.94142912209051   -0.41866925142374
H           4.29544305335860   -8.14950328035190   -0.11656566881195
H           4.32180460004809  -10.56152710339066    0.30266208048353
H           2.23420713112415  -11.85754882039252    0.40664598716348
H           0.78639021986704  -13.04631927171783   -0.87866341100984
H          -0.51245770019285  -15.19065108301411   -0.19519901809357
H          -2.68256415289391  -14.61689462114869    1.15664765904665
