24
         -42.494004527251          0.000383499765
H           0.86232179154282   -0.13560005023709    0.00664502951775
C           1.93375540206476   -0.09034118702597    0.00308577696742
S           2.71378158316050    1.43192877199597   -0.00064769346186
C           4.27963393194774    0.65565321136959   -0.00511660400951
C           4.14684057745973   -0.72240926754199   -0.00364675460281
C           2.81325908970590   -1.13780135696709    0.00101324106013
N           5.35329289541700    1.46565438371801   -0.00899849372420
N           6.50530250847940    0.89654235511849   -0.01198877698083
C           7.58693181178164    1.71177542078515   -0.01546485554889
N           7.59778836778727    3.04225722867255   -0.01598635934110
C           8.93675970681462    1.21441100436059   -0.01884489975279
C           9.53563121669177   -0.04186008559175   -0.01992923550674
C          10.91140158577349   -0.09681212442575   -0.02339029509544
C          11.69299256779300    1.06557882972320   -0.02577397444990
C          11.12522077237819    2.31994085371004   -0.02482023203961
C           9.73550870417892    2.37955187952455   -0.02133439175132
N           8.86589910725257    3.42945239148768   -0.01946592287561
H           9.08358289924094    4.41400992830357   -0.02034931317293
H           5.00194734389869   -1.37331354388359   -0.00593597638657
H           2.50424174706778   -2.16819436152486    0.00282369444359
H           8.92999819943492   -0.93388228635910   -0.01807575471433
H          11.40865307954094   -1.05534180238067   -0.02429756604781
H          12.76874503762586    0.97096848789151   -0.02841815723496
H          11.72610007296153    3.21645131927695   -0.02665248529168
