23
         -39.509274617027          0.000850236186
N           0.95528161861782   -0.16351408917879   -0.24218479186504
C           2.31201997152213   -0.03299882996382   -0.14493140617665
S           3.05246494169508    1.53235966229028   -0.12304944131410
C           4.65568595974965    0.80227412908471   -0.09279743760751
C           4.55792305144220   -0.57685643306122   -0.09707639088767
C           3.24650050784383   -1.04637656132550   -0.12594770422309
N           5.69342683337987    1.64588741862410   -0.07840365512730
N           6.87520348011089    1.13360703599562   -0.04698074370807
C           7.88342069878094    2.04804244102244   -0.04049556502749
C           7.84192833296528    3.47207280627237   -0.05222595440829
C           9.15514411628084    3.84946640633657   -0.03970380047065
N           9.15032999729034    1.62786083697308   -0.02192584669516
N           9.89835373874575    2.71487951532999   -0.02228783325433
C          11.32831797929000    2.61674426547892   -0.00741070779180
H           0.40396834566307    0.64677213569711   -0.01295799799962
H           0.56757592355327   -1.04923537152393    0.04168744534677
H           5.43758058984722   -1.19445033189963   -0.07930708124645
H           2.97596367990761   -2.08745479376310   -0.13634894724600
H           6.96426403656956    4.08315109025050   -0.06683947019577
H           9.61603187507842    4.81765468625915   -0.04220660575679
H          11.58687363106758    1.56004180888947   -0.00675638598104
H          11.73759796343518    3.09209492701948    0.88653695465022
H          11.75547272716346    3.09576724519227   -0.89094663301415
