31
         -63.550575244257          0.000938196763
F           0.84030740662021   -0.17499734752189   -0.14631505025411
C           2.16435279752523   -0.04539400433661   -0.12783933010941
S           2.87952610134413    1.51940244800356   -0.15496406546254
C           4.46758605957479    0.77531887850946   -0.10898008382630
C           4.37698339799342   -0.60566050338213   -0.07649231746032
C           3.06147046518060   -1.07573072474221   -0.08737297624480
N           5.51336403774472    1.61538006701286   -0.10934296750560
N           6.68611697502707    1.08445113889807   -0.07277192610939
C           7.73673772402476    1.93145136544304   -0.06123260202029
N           7.70509382111029    3.26167166635494   -0.05768264488276
C           9.10029561078743    1.47711985431726   -0.03727688708891
C           9.85379994666738    0.30663980551215   -0.02039493975740
N          11.16566890791548    0.36141595028214    0.00700142669870
C          11.77419474060827    1.56418004506389    0.01708581177167
N          13.11741354294872    1.55280111123267    0.01874247921661
H          13.60914937441823    2.42208476108837    0.11099824169188
H          13.59309832150616    0.67419467596342    0.11296910856154
N          11.17241448585083    2.75588582928336    0.00878894612664
C           9.85381428205743    2.67084282787328   -0.02008632091875
N           8.96429499079781    3.70380095194542   -0.03268182204542
C           9.28625420397162    5.03888603311865   -0.01834877993322
C           8.42584389405117    6.10054602440653   -0.02949882946575
C           9.11345434079216    7.32983500175775   -0.00792481131117
C          10.46333365345482    7.17815116919983    0.01879520185326
S          10.94783376139025    5.52412872275578    0.01873865491115
H           5.25330042815244   -1.22669165663432   -0.04657325187103
H           2.77246545460324   -2.11042335782310   -0.06665345247409
H           9.40697640983155   -0.67789671506491   -0.02593555312862
H           7.35890231148893    5.98299287869766   -0.05219307575189
H           8.62007161528637    8.28476594826238   -0.01223212562224
H          11.21411093727452    7.94242715452274    0.03861394241261
