31
         -60.139218531359          0.000362624236
N           1.15031184618136   -0.42943194138888   -0.91877631088894
C           2.49320308989840   -0.26302984308798   -0.80051622492997
S           3.19686732925427    1.31658464396501   -0.78273209961120
C           4.79975005160401    0.62579086097234   -0.52877013255605
C           4.72644396612932   -0.75923792373196   -0.47063449967446
C           3.44002972639660   -1.25705621376140   -0.62118093999932
N           5.80796236991687    1.48576679056955   -0.42637801196297
N           6.99886703415689    1.00166881600964   -0.26771054850633
C           7.96244725655361    1.94322119652188   -0.14919184703659
N           9.22907548828501    1.58443881850194   -0.02255661471264
C           7.85979922735803    3.38431851374076   -0.11915772325811
C           6.90573965275933    4.39015235941156   -0.19405540019456
N           7.27561928760796    5.65692640455618   -0.12281026899631
C           8.56676068710529    5.93559148533687    0.02269748906947
N           9.57338138895048    5.08924077413996    0.11096388050763
C           9.19934655708573    3.81887717081040    0.03768853482941
N           9.97465134887437    2.69599185449289    0.08929851406937
C          11.34282073710307    2.60023889855286    0.23083775124730
C          12.14216660482446    1.48904316591233    0.24142242555613
C          13.45600681516499    1.98150677213906    0.41865436104741
C          13.34846088823119    3.33588317988616    0.50016866833704
O          12.06262664251260    3.72040471334623    0.38663304496963
H           0.60089226448177    0.35401692626831   -1.22808457544600
H           0.80979297933612   -1.34477825552591   -1.16185917927678
H           5.61021166161328   -1.35226643954215   -0.32023934304506
H           3.18711247418252   -2.30205487415477   -0.60133736967717
H           5.85048702050203    4.18585199579742   -0.31175090577053
H           8.82310610141892    6.98530788238513    0.07577024789558
H          11.81708252465942    0.47629719321543    0.13616113286864
H          14.35413503937973    1.40221200547193    0.47630817143068
H          14.07666193847265    4.11013306918914    0.63300777371397
