31
         -59.327187048083          0.000499074345
C           0.93249189848333   -0.53081779712030   -0.06555715686508
C           0.87628583922633    0.87234188924951   -0.07820828792304
C          -0.39824751234703    1.34785876169039   -0.03770497300865
S          -1.56330867570586    0.08927417810077    0.01670336072036
C          -0.30817761727595   -1.12029054160046   -0.01552263271659
C          -0.62291112837077   -2.50736285692153    0.00811679023583
S           0.62353992814869   -3.71135047476419   -0.01454528118679
C          -0.56717046530087   -4.99113690914070    0.02703945705162
C          -1.85569027519637   -4.46913708458863    0.05780800736924
C          -1.88295671718036   -3.08394217302879    0.04793156587082
N          -0.09466417357029   -6.24181956889328    0.02598800938431
N          -0.95932139800621   -7.19658675000732    0.04938066892296
C          -0.46114221507592   -8.45624729870697    0.03858201742699
N           0.81470989243478   -8.81897773619713   -0.03706422492928
C          -1.29449439408456   -9.62430264600861    0.09690833378485
C          -2.63581350129044   -9.98439085603228    0.17706402313290
N          -2.98306556822528  -11.25077040936867    0.20708482479974
C          -2.01866418460710  -12.19210570930484    0.16034373740283
N          -2.44133182662517  -13.46838128283427    0.21989634745494
H          -1.77417397455067  -14.21006754195874    0.11787231919979
H          -3.42746839685322  -13.65079464718486    0.21081323018192
N          -0.70311840290130  -11.98808261521183    0.07713580663416
C          -0.37685740873918  -10.70394047433380    0.04969032981590
N           0.85706942635841  -10.15467113905160   -0.03092867865187
H           1.74379587704735  -10.63075774519808   -0.08445494408119
H           1.84231274375253   -1.10305970313864   -0.09229120357131
H           1.74503278388106    1.50464102984292   -0.11604634762165
H          -0.72850835257602    2.36755459224919   -0.03644181777997
H          -2.71874015197640   -5.10922904914075    0.08665660259638
H          -2.78203971733123   -2.49246513316160    0.06762412175534
H          -3.43639233154209   -9.25831230823507    0.21439599459458
