33
         -63.932155099767          0.000996742009
C           0.56432909514345   -0.61202834209455    0.09322559301740
O           1.59917066035699   -0.29257375160619   -0.81545328187093
C           2.34818613905442   -1.30369141168860   -1.27287903185565
S           3.61511461917310   -0.90022578193906   -2.37464993128315
C           4.06967350913658   -2.59802420212713   -2.49027748603141
C           3.25068216507572   -3.38178038330971   -1.69485814957863
C           2.28160955055941   -2.65464280911109   -1.00681580420227
N           5.10579275559088   -2.89190285191468   -3.28043595784137
N           5.42053372910587   -4.13727407448911   -3.40972030903508
C           6.50942260865014   -4.35815182347503   -4.18120673128619
N           6.87363218427069   -5.59615255273545   -4.47442902714964
C           7.44255008134965   -3.42507813652859   -4.76790506388001
C           7.67660827624278   -2.05837693063059   -4.85650202697970
N           8.71985304019211   -1.61226857243991   -5.53250506606353
C           9.52897175594526   -2.49288581116440   -6.11211868544254
N           9.43210537090339   -3.80754026762535   -6.10562937092037
C           8.38242242367521   -4.25295638780856   -5.42932453571682
N           7.98611266034314   -5.54437919165909   -5.22004791738336
C           8.56857634959402   -6.70585501833210   -5.68157567306799
C           8.17685379814360   -8.00660559841534   -5.51017284988466
C           9.13997638213980   -8.77598518514803   -6.20298318467597
C          10.02765744807946   -7.88972729751883   -6.73245965965975
O           9.68566901793179   -6.62607852307689   -6.41846442197197
H           0.08741772939107    0.33450389838848    0.33973978159413
H           0.96607292714749   -1.07035329240910    1.00163412319724
H          -0.16709035458997   -1.28531670791905   -0.36330983277015
H           3.38101626544856   -4.44704902261129   -1.63571007641407
H           1.56370393014365   -3.10168900617560   -0.34328152994600
H           7.03381376574622   -1.32487876703715   -4.38988529255135
H          10.36882496154733   -2.08116991122030   -6.65569376429194
H           7.32104580722021   -8.34214825108291   -4.96454189220431
H           9.16330257165273   -9.84225980839168   -6.29234540831090
H          10.90890877564533   -8.02065422669933   -7.32729753554132
