31
         -59.328800801592          0.000956393139
H           0.93776682725950   -0.08570491882027   -0.04164043721246
C           2.00961022181907   -0.05122339659883   -0.03754326204006
S           2.80530101448203    1.46180661320604   -0.06522442925724
C           4.36270407620402    0.66900938773651   -0.03943054875784
C           4.21520189114219   -0.70891300870467   -0.01202813610067
C           2.87792036917770   -1.10890191830021   -0.01170694350067
N           5.44396394813906    1.46453280060328   -0.05221739415647
N           6.59022958731354    0.87852485277971   -0.02345479633879
C           7.68142067463592    1.67441078009890   -0.02678093632230
N           7.71589775635698    3.00340869833619   -0.02167066359329
C           9.02071283357952    1.15175588804205   -0.02078151607262
C           9.71452887354887   -0.05449672952745   -0.01392861277122
N          11.02824294629125   -0.06600938667760   -0.00180437691975
C          11.69569895671475    1.10480296065654    0.00139753598957
N          13.03725572054630    1.02605800651054   -0.01376649469494
H          13.57257433349692    1.86999988769729    0.07395945250546
H          13.46858634993822    0.12495080441367    0.07992506579675
N          11.15506988891252    2.32488734203319   -0.00024763145987
C           9.83323332445638    2.30677203311903   -0.01282295067620
N           8.99781772760552    3.38222834771255   -0.01289495227335
C           9.38869075645945    4.69896954464983    0.00006556121964
C           8.58684172582407    5.80491945715925    0.00290546753283
C           9.33998123447135    6.99574686144843    0.01811035574815
C          10.67967298720693    6.77220568467259    0.02630431841018
S          11.07431394282863    5.09398413299164    0.01600180337297
H           5.06341898258350   -1.36848151288595    0.00517674758932
H           2.55708561875375   -2.13547843185601    0.00714180853475
H           9.21904094832522   -1.01548230819684   -0.01476826940242
H           7.51494565421396    5.74568081670092   -0.00571869923978
H           8.89865473435056    7.97584813716939    0.02271673639373
H          11.47079609336240    7.49470857383044    0.03777619769670
