36
         -69.993822289724          0.000780471431
C           0.40636257582312   -0.56989418625695   -1.74780300810587
C           0.11319554513666    0.75482238293077   -1.92394338022859
C          -1.27784029407486    0.84303710732246   -1.71080287629802
N          -1.79055386334386   -0.33093196320955   -1.42783120602838
N          -0.76618682633922   -1.19372868596136   -1.44946388432483
C          -0.96804278425852   -2.52613402461271   -1.19693279242546
S           0.33493412790279   -3.65958775747621   -1.22753249840561
C          -0.77564225374157   -4.96235677702899   -0.84186367670839
C          -2.07252996413419   -4.48677681401515   -0.70409697631380
C          -2.18072746760647   -3.11627454391033   -0.90252665113208
N          -0.23781600472293   -6.17947795601468   -0.72456890512783
N          -1.03813285562630   -7.16298681624100   -0.47733210883747
C          -0.41884322112659   -8.35567538533820   -0.33467552990878
N          -1.13006653336999   -9.45402244917768   -0.13130640701065
C           0.98792028786990   -8.68236392776972   -0.34209495393872
C           2.22849010850246   -8.07268801502643   -0.48546218776319
N           3.32970114532565   -8.79794436728005   -0.41481618687818
C           3.22115305085413  -10.10550023177889   -0.20378373012198
N           2.11798867194731  -10.81047791919388   -0.04821282522125
C           1.01407624539144  -10.08068204738172   -0.12129251591360
N          -0.28775348856943  -10.48545604764366   -0.00483694447826
C          -0.76976575452051  -11.75958105106093    0.20807598472823
C          -2.06270671427647  -12.20203475627604    0.29822021143041
C          -1.96094931246178  -13.59427848826211    0.52128402978653
C          -0.62978726812715  -13.88039577394541    0.54779476043756
O           0.10180016819808  -12.76717229253970    0.35791928519849
H           1.32712921612602   -1.11324788250868   -1.80692652596964
H           0.78666517179569    1.54962114830711   -2.16910994626545
H          -1.90523143288362    1.71030383904005   -1.75459934692206
H          -2.88487167723814   -5.14874349829182   -0.46473457877864
H          -3.08903515016516   -2.54522012633681   -0.84377610012292
H           2.34114449839303   -7.01118346613034   -0.65707181431926
H           4.14959583709067  -10.65797946854080   -0.15188630362635
H          -2.94350449196039  -11.60223025796479    0.21415532850810
H          -2.77043076977923  -14.28346916664381    0.64389238088911
H          -0.09263852202932  -14.79658833378338    0.68777188019754
