18
         -32.896965121720          0.000564346125
H           0.97380261324486   -0.05114716491519   -0.05949682044676
C           2.04519260008696   -0.00443462293295   -0.06327721979467
S           2.82059177464047    1.52024038659744   -0.06439548999943
C           4.38814021436041    0.74816490714195   -0.07100953184515
C           4.26154249749262   -0.62847282230022   -0.07202450891993
C           2.92819891599385   -1.04802516466876   -0.06755430068977
N           5.46364515589805    1.56153983589741   -0.07264575376281
N           6.61506908063823    0.99842486369508   -0.07939977373099
C           7.67238382887865    1.85728934778262   -0.07888890402551
C           7.70765242636710    3.28339300107497   -0.07025302335551
C           9.03782413200628    3.59196693571417   -0.07340463159050
N           8.91200779549859    1.36564115925497   -0.08664554285626
N           9.71156081234440    2.41424997405400   -0.08327529667332
H          10.71079776431752    2.27747289605868   -0.08790866695602
H           5.12063333993226   -1.27418119712344   -0.07572907211189
H           2.62243416993289   -2.07928399403016   -0.06745822500655
H           6.86205418618555    3.93767077060540   -0.06295071826786
H           9.54969869218132    4.53336088809403   -0.06948251996708
