36
         -70.358415509887          0.000609635513
C           0.41005586071248   -0.49071221632583   -1.74972774590778
C           0.02797404390429    0.85499020436326   -1.91131325013639
C          -1.31994993490158    0.89047054008342   -1.70231308557111
O          -1.79506264111967   -0.33093579822194   -1.42456003587284
C          -0.74327671680922   -1.18462282354786   -1.45101233620682
C          -0.96026128360595   -2.57045192333917   -1.19346508929012
S           0.34464331738329   -3.70213680619069   -1.22407964694740
C          -0.75180803333921   -5.01540843827927   -0.85029282776504
C          -2.05576112771895   -4.55189250889695   -0.71236126669749
C          -2.16904915596483   -3.18460962922924   -0.90359478654162
N          -0.21441945012406   -6.23323470568033   -0.73548635428183
N          -1.02100963612939   -7.21434313478395   -0.49406889833077
C          -0.40977859091205   -8.41039592678173   -0.34828988975081
N          -1.12917959186395   -9.50288379173972   -0.14281607417972
C           0.99491314625590   -8.74707152097917   -0.35073000611370
C           2.23948686195133   -8.14597740891042   -0.49263122500670
N           3.33583739069761   -8.87832177730045   -0.41506698925693
C           3.21776282993625  -10.18421605114698   -0.19934113891931
N           2.10967393620620  -10.88168542985035   -0.04516053733651
C           1.01078727054157  -10.14473140846504   -0.12423773009739
N          -0.29373319474547  -10.54023470265722   -0.00966852389587
C          -0.78740358766965  -11.80814464065647    0.21317935079233
C          -2.08480935399060  -12.23809008368967    0.29746796170145
C          -1.99766412925959  -13.62809529026898    0.54039577424229
C          -0.66949510040660  -13.92530659296029    0.58318452025250
O           0.07387242079878  -12.82105851702643    0.38467725913161
H           1.39254447622027   -0.90748101293557   -1.83731080513608
H           0.66447613502570    1.68218683163879   -2.15012711215815
H          -2.02649308698812    1.69683310179472   -1.72350105231509
H          -2.86343206071852   -5.22155563397983   -0.47840601157498
H          -3.08907122453913   -2.63136352796663   -0.84089101833295
H           2.35914902327397   -7.08591379115782   -0.66834200665531
H           4.14238095693318  -10.74262669508846   -0.14210514620720
H          -2.95937818896837  -11.63175262542066    0.19700783610021
H          -2.81451723514872  -14.30834029486239    0.66514699046155
H          -0.14176434491560  -14.84407596953854    0.74060089780917
