38
         -69.450097261398          0.000458824231
C           0.33204171706600   -0.52523685489103   -1.73213108120450
C           0.00173954549227    0.79365642232719   -1.89469501313940
C          -1.39297081157164    0.83698122101380   -1.70485729744846
N          -1.87448900555752   -0.35713509536408   -1.44826993112101
N          -0.82477781908872   -1.18753941367815   -1.46460925409971
C          -0.98937959877810   -2.53068383028257   -1.23126241626331
S           0.35425513794405   -3.61959869699711   -1.23699127898973
C          -0.71732793084649   -4.96297344434692   -0.88915509713308
C          -2.03073523803422   -4.53559477075523   -0.78239828074120
C          -2.18393192485874   -3.16597740192559   -0.97380390068084
N          -0.14359810345580   -6.16667584697666   -0.75724149654198
N          -0.93423908026646   -7.16419058189288   -0.53712197694819
C          -0.32311531217541   -8.35493071409091   -0.36596362230490
N          -1.06530214363801   -9.43637546800691   -0.16866665529043
C           1.07895300076116   -8.70886645957636   -0.32944801902408
C           2.27832187419036   -8.01855327123587   -0.46617459964849
C           3.44816844242242   -8.73968577002650   -0.35717103192972
C           3.43751434627369  -10.11654367062475   -0.11580601654166
C           2.26039295308336  -10.82173244849776    0.02256270335933
C           1.07972399184095  -10.09830103703357   -0.08925364132666
N          -0.24547936242872  -10.47397513976720   -0.00547636034683
C          -0.77838984974746  -11.72336142055475    0.20898834263386
C          -2.09148944044115  -12.10597130878900    0.27945767386752
C          -2.06333731965222  -13.49997267923119    0.51518309919352
C          -0.75190566057502  -13.85415841209476    0.56951993144606
O           0.04172616844570  -12.77633268321570    0.38362791686341
H           1.26959450269870   -1.04024537423876   -1.78286351630996
H           0.65536432000272    1.61107596298371   -2.11655498909624
H          -2.04654995005201    1.68515397512324   -1.74685787803971
H          -2.82407184106650   -5.22816767221223   -0.56852053426203
H          -3.11408722526737   -2.63014503801520   -0.93351110460399
H           2.27576699994160   -6.95683751267032   -0.65174688839682
H           4.39753972712772   -8.23534673076457   -0.45899733488721
H           4.37786010045910  -10.64133256457010   -0.03487580803147
H           2.25664356463639  -11.88277301734234    0.20959020491932
H          -2.93957745530957  -11.46429504997646    0.17442217825591
H          -2.90827295462104  -14.14699727006507    0.62811569651382
H          -0.26233836495489  -14.79380093173751    0.72652727729798
