26
         -46.767726637885          0.000793336475
H           1.07811931821952   -0.24282427056771   -0.84428620816722
C           2.14190987954175   -0.17903226797509   -0.72481815329135
S           2.89554039522999    1.35560242227361   -0.70008830592398
C           4.46211983071147    0.60842994893430   -0.49247212557841
C           4.35113425441356   -0.76983449096783   -0.45077007278703
C           3.03078219791632   -1.20857482167366   -0.58338437665902
N           5.51782647916008    1.43878167614287   -0.40340575577516
N           6.67668359573634    0.89944910809803   -0.26373873628630
C           7.71724692332383    1.76792604816885   -0.17276618604226
C           9.01675822131699    1.33856442607192   -0.03880873323180
C           7.75265742047303    3.22016667157892   -0.18752376925789
C           6.78143741036092    4.20773322650091   -0.29614046713477
C           7.18991018514920    5.52749130256208   -0.27449459729876
C           8.53364699588355    5.87388351964388   -0.14738735411463
C           9.51721457928959    4.90814303621595   -0.03669567378324
C           9.10370134340949    3.58831106101523   -0.05909405283098
N           9.86136628102346    2.42026543102907    0.03005772275814
C          11.17510125608556    2.37187514279105    0.15773562176960
N          12.31512236420622    2.34247966139536    0.27037325407826
H           5.20933194297511   -1.40539673231858   -0.32843075193649
H           2.73795522522615   -2.24398721871077   -0.57599769445847
H           9.39612865727156    0.33622482703250    0.00897966817382
H           5.74295180561794    3.93672258453442   -0.39462656927332
H           6.45316860965457    6.31217236007394   -0.35820832630962
H           8.81356977474235    6.91618301761544   -0.13526061463219
H          10.56075505306143    5.16621433053523    0.06257225799369
