38
         -68.988971092828          0.000426669565
C           0.33645824331495   -0.58363881260013   -1.89083389765341
C           0.14402075300400    0.79316618933740   -2.09244510322822
C          -1.15032576511568    1.17473019975385   -1.91650303044309
S          -2.16832480704677   -0.14252744762976   -1.49923503146513
C          -0.82073867051815   -1.24727600172218   -1.56045958469929
C          -0.99926378209015   -2.63179744599674   -1.28858905674739
S           0.33396533178460   -3.74065371448133   -1.34653839146522
C          -0.71690029384812   -5.07482487672877   -0.93038400724922
C          -2.02541562641503   -4.64203377198128   -0.75784564227027
C          -2.17804410820461   -3.27862285142700   -0.95693494666840
N          -0.14613664646941   -6.27943315671469   -0.80102948115295
N          -0.93901564511734   -7.27227472161783   -0.56313701665155
C          -0.33168497656229   -8.46226712433044   -0.37634914063951
N          -1.07769544983853   -9.54046266131466   -0.17578742339407
C           1.06949450899649   -8.81829743488943   -0.32259226248682
C           2.27113684077657   -8.13095265725241   -0.45306819396805
C           3.43873685343678   -8.85310059382324   -0.32695591093548
C           3.42353309317210  -10.22789933241030   -0.07457006267558
C           2.24393174089067  -10.92993618858178    0.05873474659053
C           1.06560552951720  -10.20551995335300   -0.07009209809040
N          -0.26070550119632  -10.57855795393415    0.00455880288192
C          -0.79874381020816  -11.82420813970606    0.22661539543750
C          -2.11372693282519  -12.20030291242864    0.29799610543639
C          -2.09237336549366  -13.59283118614435    0.54324591595654
C          -0.78269661004808  -13.95272966595886    0.60154009072083
O           0.01637055000124  -12.87972173811404    0.40948641348049
H           1.28376842442901   -1.08406519720514   -1.98210892459871
H           0.93286807043749    1.47412719965481   -2.35742140340820
H          -1.57394319287939    2.15517732976113   -2.00629343616455
H          -2.80899022600189   -5.32768550248196   -0.49156928527948
H          -3.11281911608714   -2.75228007342658   -0.86910883851949
H           2.27188191038744   -7.07077936124212   -0.64733424005211
H           4.38988368333555   -8.35107837215580   -0.42354306701920
H           4.36223259180938  -10.75363972102665    0.01911069592417
H           2.23637940675999  -11.98942206342093    0.25441622947662
H          -2.95858205044847  -11.55532662838761    0.18743185498024
H          -2.94044649603474  -14.23526707707361    0.65961854235035
H          -0.29786445960050  -14.89361657894292    0.76552468369239
