33
         -59.201364611951          0.000760354622
C           0.72424945398799   -0.39448451604680    0.42895723439769
C           0.47321102403594    0.95184449247130    0.40215043050998
C          -0.88188590053295    1.05302305290381    0.03394769984725
N          -1.41463814313484   -0.13374265247921   -0.14900782763970
N          -0.43706829290252   -1.01503743308848    0.09161252735628
C          -0.66593285137915   -2.36583378120595   -0.01337409652711
S           0.59334407405010   -3.51736484970728    0.27494250881665
C          -0.51607020864119   -4.83371707585262   -0.06153555448460
C          -1.77652641926351   -4.35229546602667   -0.37172475842930
C          -1.86134708889446   -2.96244378892898   -0.34359825896071
N          -0.01543369382290   -6.07167058594000    0.05441836786247
N          -0.80440580080274   -7.05212736438232   -0.23768263086124
C          -0.27700828799991   -8.28012735748798   -0.06462203596885
N          -0.99818421128491   -9.35009738302246   -0.40055144286879
C           0.99552265440325   -8.70558629015545    0.46604949762928
C           2.13314686770530   -8.07625786999965    0.96442609785763
C           3.16943509676807   -8.87475083422263    1.39610903797444
C           3.09463623340907  -10.27269042829728    1.34560349309404
C           1.98148361234965  -10.92045267602378    0.85891140106700
C           0.93488928269725  -10.11568548935142    0.42145127087090
N          -0.28413286992875  -10.42093550751992   -0.11126044226665
N          -0.79047369928028  -11.69147040090096   -0.30314207620319
H           1.60958337428838   -0.95329551877934    0.65501929907366
H           1.15363125627136    1.75038494947091    0.61359546729174
H          -1.47293643955371    1.93670145120339   -0.10004775478876
H          -2.58681335637966   -5.01961748478654   -0.60196880899075
H          -2.74490038703174   -2.38754031219366   -0.55128730321092
H           2.18611814465559   -7.00038183670980    1.00221970022249
H           4.06634586338950   -8.41771926624524    1.78716559650275
H           3.93321408733826  -10.85328811031884    1.70049639442573
H           1.91084881601691  -11.99598569374236    0.82403919074759
H          -0.38144734567800  -12.13075661567763   -1.12775968385386
H          -1.79535484485768  -11.60887735695504   -0.43473254049266
