39
         -68.864139570687          0.000444616111
C          -1.62665026821290   -0.04348678402910   -1.40672311695334
N          -0.96015392598855    1.07301334013591   -1.76907093056177
C           0.26313712994922    0.69619110149537   -2.02875280382428
N           0.42820177643807   -0.63316896807615   -1.85050331936549
H           1.26564152694101   -1.17743995608142   -1.98090717946681
C          -0.78304739291371   -1.14068632353607   -1.44689167234051
C          -1.00447292955052   -2.51837035346288   -1.16178957820403
S           0.28217863243517   -3.68239914140796   -1.28449818963479
C          -0.79748961509743   -4.98015596663923   -0.82739918702557
C          -2.07303541910943   -4.49440564985559   -0.58960290222661
C          -2.18481024557468   -3.12057334173251   -0.77316428400322
N          -0.24588871965917   -6.19592205802515   -0.72055930529117
N          -1.03702150213111   -7.19639556905778   -0.51952488802985
C          -0.43153434695312   -8.39378040574201   -0.34738525702255
C          -1.14527730390076   -9.57011864694275   -0.21490699818091
C           0.96570707511055   -8.75533575840915   -0.24244259372466
C           2.14838112321300   -8.02585828498492   -0.27559192648835
C           3.33875914249601   -8.70441258365189   -0.11133843616075
C           3.36374352877704  -10.08271659498901    0.09753757811526
C           2.20086649203811  -10.82740720030595    0.13369489196448
C           1.00430264564642  -10.15234249351015   -0.05261082685927
N          -0.29962305956258  -10.62523945660139   -0.04971730909516
C          -0.69016093574457  -11.94412232540336    0.08519947302734
C          -0.12457618706009  -13.12678312930068   -0.32565399629569
N          -0.91229496628970  -14.16564991249195    0.04732869619185
C          -1.93221734535052  -13.64929880411912    0.66663238708777
N          -1.85606267025115  -12.29473022677607    0.72129490257216
H          -2.50645523569416  -11.65974148576552    1.15424399900421
H          -2.66247571300533   -0.00532984816557   -1.13830811272228
H           1.04968823210977    1.35069248817611   -2.34661434808493
H          -2.87253729778518   -5.14566410281466   -0.28595482445239
H          -3.09584730437508   -2.56649412526576   -0.63594569832719
H          -2.20885493652726   -9.70196938450800   -0.27032545927041
H           2.11948715051328   -6.95865624577227   -0.42448529565846
H           4.27124825711446   -8.16046578094827   -0.13578346747216
H           4.31229535961574  -10.57910310506878    0.23777958696702
H           2.22472242770329  -11.89018519366389    0.31439889856760
H           0.77573491650152  -13.28864579284524   -0.88063682435512
H          -2.74525809586659  -14.20741192985732    1.08384831760125
