25
         -42.240516187508          0.000849876564
H           0.87944788538473   -0.13067030440230   -0.07111983491870
C           1.95082723745812   -0.09172971604366   -0.07656578108192
S           2.73702975860129    1.43097843757702   -0.07945353790807
C           4.30112566143139    0.65060082516355   -0.08777893453150
C           4.16564264196036   -0.72364196758839   -0.08819082970406
C           2.82879818778665   -1.13678261424292   -0.08181879058343
N           5.37927689602369    1.46135183705994   -0.09239598688203
N           6.53333019403802    0.88856998069540   -0.09714791322130
C           7.60320074759836    1.72043896917226   -0.10160091807271
C           7.66156354470879    3.10834158211061   -0.10288102860350
C           8.96693056897032    1.25876136976428   -0.10564849006367
C           9.55895521008978    0.00077952893367   -0.10648699545102
C          10.93593648475663   -0.07375690547445   -0.11057267902859
C          11.72809298912695    1.07597594744227   -0.11379202143679
C          11.16430246596065    2.33546425095730   -0.11311178081571
C           9.77946444248150    2.41399210566317   -0.10905061782975
N           8.95297750786036    3.51081068171660   -0.10735927016770
H           9.26469654823620    4.46854875497735   -0.10914579314745
H           5.01802107744649   -1.37779317113103   -0.09301546380904
H           2.51951643132990   -2.16713267127986   -0.08102944074485
H           6.84657604189676    3.80551819989768   -0.10091172004396
H           8.94532264596433   -0.88577045211711   -0.10395836055832
H          11.41893541276298   -1.03959976475139   -0.11127916276385
H          12.80319838255521    0.97598069370712   -0.11685428688213
H          11.77564103557057    3.22577440219293   -0.11559036174994
