27
         -51.286777538685          0.000438437597
N           1.32257199894621   -0.74799042150500   -1.50833997147828
C           2.42569980027718   -0.55766346804045   -1.25215892800816
C           3.76691605857727   -0.34200742953377   -0.93502368906056
S           4.52735233911895    1.18657563034348   -1.23460300689943
C           6.03983921982752    0.56822854946532   -0.62717561776263
C           5.91963358928100   -0.74820804692442   -0.20309056739339
C           4.63845693972737   -1.25692418980857   -0.37421560706560
N           7.06153099993623    1.43811562574639   -0.55297464962549
N           8.23655529038535    0.96338059866128   -0.34881088002667
C           9.22288552221146    1.87473628909838   -0.17117512676273
C          10.53957750553446    1.50126949276234   -0.01061572077848
C           9.18345817799781    3.32477657892793   -0.09133376483529
C           8.16753052311499    4.26865875116777   -0.17349293073856
C           8.50702126104889    5.60239808699352   -0.04805890529915
C           9.82561082183887    6.00392332061194    0.15553223566553
C          10.85301019601147    5.08183374332831    0.24121206890278
C          10.50806206646212    3.74835589111602    0.11526065263257
N          11.32036569968743    2.61359768429899    0.15985049183489
C          12.63061579292973    2.62220006026814    0.33981814872414
N          13.76484662983638    2.64188207495732    0.49705065269217
H           6.74876089696654   -1.28440314376340    0.22133732317697
H           4.33773464118883   -2.25649121493608   -0.11373906294638
H          10.96612074080560    0.51683342236445   -0.01210271292360
H           7.14816856919949    3.95696827946704   -0.33267475603634
H           7.73459198763152    6.35394984273317   -0.10897067872823
H          10.05106548967541    7.05517659616106    0.24845278775294
H          11.87734724178280    5.38317739603951    0.39904221498808
