30
         -60.394923692267          0.000482073450
C           0.87979684442474   -0.42936869295372    0.06991614502625
C           0.78186808303551    0.96912827545768    0.11330401388940
C          -0.50892378982888    1.40594165038723    0.11479514484302
S          -1.63675456583001    0.11811755647859    0.06249980933889
C          -0.34619001880996   -1.05444363497506    0.03768152767074
C          -0.62378641773139   -2.44661208080267   -0.01324728092994
S           0.64744024322831   -3.62011262064918   -0.02509348208752
C          -0.51732647667135   -4.92401782244607   -0.10401214808987
C          -1.82011269807336   -4.42993781159142   -0.11505090448419
C          -1.87504924595738   -3.05009368558355   -0.06288350965906
N          -0.03145565708882   -6.16582029835190   -0.12624706562929
N          -0.87668634434456   -7.13099291697238   -0.25214737019660
C          -0.35173606145369   -8.37238294451014   -0.15246335639923
N          -1.05617143049454   -9.42234005994563   -0.51910730142537
C           0.91659493948707   -8.79508167505468    0.40927767416168
C           2.06856719051646   -8.25964289372038    0.97053454266274
N           3.03807824028875   -9.06344554752595    1.37053579062336
C           2.88074051790305  -10.37360489356675    1.23664680394007
N           1.83914330196063  -11.01365759099488    0.73563660349026
C           0.87721674667603  -10.20439630026163    0.32741867751828
N          -0.33078997146817  -10.53209377091170   -0.24341408746456
C          -0.76972115938277  -11.75532952503740   -0.51870217047883
N          -1.13610922037031  -12.81397485514500   -0.74870720432234
H           1.80736537686229   -0.97306786634978    0.06071809824013
H           1.63091191464737    1.62772919997702    0.14197384372482
H          -0.86720840217431    2.41580638784835    0.14370039093833
H          -2.66703592120410   -5.09044411569980   -0.16060303865966
H          -2.78537839430883   -2.47637673946164   -0.06208780486399
H           2.21959518039338   -7.19630594733863    1.09511590117513
H           3.69655719575730  -10.99308878029215    1.58260175745199
