28
         -49.576199705882          0.000780221362
C           0.96571088601545   -0.48311093576364   -1.20893659146594
C           2.42051176831693   -0.29150072639991   -0.97558266091032
S           3.08520637814372    1.29278894133028   -0.78753805556073
C           4.68871643573546    0.63217679943088   -0.55221962918558
C           4.66534651368568   -0.74650961454273   -0.62536582392567
C           3.38604367811798   -1.25646716084673   -0.86487835564880
N           5.68256135485495    1.51868691160952   -0.35991022126456
N           6.85750732250236    1.03707310436552   -0.14406447955693
C           7.84727640312538    1.94844365229125    0.02284814671564
C           9.15414828176666    1.57190398808958    0.28732172114008
C           7.83664589679158    3.39453516288395   -0.02888164978086
C           6.84878697266718    4.34783493318813   -0.25508771164435
C           7.20658274918317    5.68039154100995   -0.23389257146313
C           8.52177310136907    6.08223732501281    0.00641234572596
C           9.52397237524675    5.16100276685102    0.23321518664635
C           9.16341785570018    3.82262524673400    0.21189015808864
N           9.90037574760068    2.68884829225900    0.39333576980049
F          11.24657527495580    2.67549746920641    0.65776395143778
H           0.61485886175427    0.16926612142801   -2.00726270110298
H           0.39924970622604   -0.23948178251376   -0.30884808716736
H           0.76247773635050   -1.51756874290841   -1.47774721824291
H           5.55683775838347   -1.33487235138853   -0.50914141576596
H           3.17085961505427   -2.30661860491705   -0.95568299744981
H           9.57499986394063    0.59390921862209    0.40388058156655
H           5.83399307308822    4.03504435710486   -0.44005583331201
H           6.45427345852785    6.43527548521365   -0.40678081099542
H           8.75969859547864    7.13518304618454    0.01447620442398
H          10.54354233541746    5.46195555646472    0.41892274889837
