32
         -64.329997288263          0.000595760597
C          -1.14506601429691    0.06910097768157   -0.00963204309417
N          -0.40358291259813    1.19226635389087   -0.05225022357009
C           0.84365381246742    0.80275590709074   -0.10524815542969
N           0.95100175155428   -0.54257058611787   -0.09900480004878
H           1.79290012452013   -1.09484545512077   -0.13227721716530
C          -0.32469178308489   -1.04988745228381   -0.03737110105445
C          -0.62485848403012   -2.43930295486684   -0.01139249176279
S           0.62362967010028   -3.64056826714004   -0.05512087576771
C          -0.56219821265399   -4.92511415347134    0.01050898890987
C          -1.85192027029017   -4.40217748082761    0.06235090700056
C          -1.88481289569132   -3.01889665641222    0.05061671647655
N          -0.08448644494963   -6.16772952143936    0.00794904073953
N          -0.93729579471204   -7.13396565559426    0.05393021211637
C          -0.41823495912012   -8.38609731410388    0.05235925745796
N           0.85593232978431   -8.72434780695870   -0.00852935317962
C          -1.24483178404833   -9.56316815045530    0.11826408755479
C          -2.58618136778956   -9.92768802944702    0.19290878328323
N          -2.92846690500296  -11.19421956479442    0.23549966352905
C          -1.96239035775444  -12.13285489585472    0.20636915298709
N          -2.36947187924437  -13.40894886916458    0.25502733655529
H          -1.68581362468021  -14.14329829850493    0.23414791930026
H          -3.35162115149429  -13.60672783060712    0.30580444145570
N          -0.64404782223676  -11.91613609041512    0.13372279959090
C          -0.33038572457614  -10.63727181609044    0.09178657278060
N           0.92513743950708  -10.07794655229564    0.01398061049243
C           2.07733360909785  -10.73205987829777   -0.03590193033956
N           3.06450148518625  -11.30952179279559   -0.07850900674471
H          -2.21376730143937    0.11378324814781    0.03832778070536
H           1.68643027129904    1.46294526443767   -0.14862668079765
H          -2.71173901487118   -5.04582005270815    0.10771637257119
H          -2.78586708294440   -2.43404476874452    0.08556235508616
H          -3.38758870600722   -9.20254185673664    0.21827088036154
