28
         -50.191140603297          0.000566193567
C           1.09886501135174   -0.39567240455482   -1.44562806686369
C           2.52952805060218   -0.17778167005564   -1.10981500205228
S           3.28841438756937    1.34166292989031   -1.38832402520139
C           4.80738680142586    0.73884841402531   -0.76313303347251
C           4.68459939243265   -0.58357699996965   -0.36493943067736
C           3.40261564550736   -1.08922385030635   -0.56213453026179
N           5.83440595651054    1.59958135125543   -0.73239133478924
N           6.96837389522081    1.14512164209016   -0.33224691490609
C           7.95593313481969    2.06418330520380   -0.21416239645469
N           9.19823018821536    1.65941064265975   -0.04401213197288
C           7.88179803950763    3.51264718715789   -0.15591096614963
C           6.87090152431380    4.46187068754391   -0.25195270171123
C           7.22803997684235    5.78924119205210   -0.13315461321420
C           8.55316531031861    6.17674310366620    0.08317531840135
C           9.57178836371833    5.25095414251450    0.18837888031779
C           9.20906585463876    3.91896486318201    0.06425931952200
N           9.96444852768371    2.75696326632706    0.11632878413217
C          11.27457438540917    2.70415593524850    0.29174427379316
N          12.40925399773968    2.70925688519138    0.44933793944047
H           0.67550674039448    0.48838355340132   -1.91418065968052
H           0.52834134592109   -0.62206255880675   -0.54456708642200
H           0.99404040593459   -1.24081852922469   -2.12564062605707
H           5.51561884532556   -1.12545202422765    0.04878063823841
H           3.11013004885909   -2.09486590671693   -0.31539993160968
H           5.85058611926978    4.15754310481930   -0.42033553428412
H           6.46823323265649    6.55246505275187   -0.20834777863009
H           8.78464351948617    7.22734028980613    0.17297607465769
H          10.59640129837190    5.54096639502713    0.36150553588068
