30
         -52.320422057662          0.000689131555
C          -0.79306589996055   -1.00280749846253   -0.12386602748894
C           0.41605497125617   -1.21774310192371   -0.62690181413719
S           1.50210410042226    0.04235120353601   -1.21461146507595
C           0.66711836062939    1.41178939456199   -0.48283468310648
C          -0.56659539316974    1.37525665339109    0.00677630902270
N          -1.38906909246292    0.24780408732945    0.03928447967708
C          -2.71325066456754    0.35774738384481    0.36559888231768
S          -3.67643502802819   -1.05272570782395    0.70446850073580
C          -5.09401125429673   -0.05572626899760    0.99211339470613
C          -4.78746544037494    1.28174511623719    0.82004770346826
C          -3.46424847947139    1.51623396164474    0.46448809343728
N          -6.22468966055769   -0.69917010005933    1.30348298639700
N          -7.26284195499592    0.02935809826649    1.54181966789808
C          -8.39249374476761   -0.66731067835713    1.83383723405209
C          -8.63237349773909   -2.07051263202948    1.89550193055923
C          -9.95355795146562   -2.17352397894602    2.22873727228503
N          -9.51404294659430    0.00041445459970    2.11602675810555
N         -10.43668405960995   -0.91214173857634    2.35022135250982
C         -11.77442897297513   -0.52452162859530    2.68803705377255
H          -1.39332535495603   -1.83296847237551    0.21802458051046
H           0.82827681704461   -2.20758523578068   -0.69986300674229
H           1.26146825891055    2.30667706112630   -0.44396380537813
H          -0.98628385157730    2.25831113087482    0.46124057005810
H          -5.53580672241627    2.04242529581832    0.94776780917871
H          -3.08156791638402    2.50035042550277    0.26411073641856
H          -7.91971623067643   -2.84732350793633    1.71515078100007
H         -10.58169369359957   -3.02789684603437    2.38725058103335
H         -11.80823596449550    0.56248864115341    2.70210884085078
H         -12.05029061364147   -0.91032471452057    3.67152069565918
H         -12.48323811947893   -0.90121079746826    1.94776458827599
