28
         -49.635229322661          0.000291250318
F           1.05019930972846   -0.52640359230314   -1.11028570199075
C           2.34794812010575   -0.31900066641092   -0.88069915338116
S           3.03536482062052    1.23793742840986   -1.16438039681216
C           4.59955737048936    0.62146200008748   -0.66519588656248
C           4.52392741444896   -0.70711195867806   -0.30265145541856
C           3.23520424671065   -1.24514179506965   -0.42269183609438
N           5.60851887649402    1.51258898634176   -0.62028816722313
N           6.79570670829184    1.04625545066657   -0.44374635539164
C           7.78094263853153    1.95945402012881   -0.30276492509635
C           9.11258223757130    1.59697381017646   -0.16554235555480
C           7.75268329810692    3.40240939416094   -0.23083173617857
C           6.73439609794114    4.34619286013314   -0.29658769560052
C           7.07102088791796    5.67924564236474   -0.17962262418067
C           8.39492948161930    6.07827764736246    0.00165253418478
C           9.42206066970974    5.15797464421611    0.06934384096179
C           9.09225719392250    3.81486599166802   -0.04980690900121
N           9.89046079132408    2.69077489323742   -0.01887718528906
C          11.31779641539408    2.65524907213079    0.13438139082179
H           5.38455821279962   -1.24680508001058    0.04678978448816
H           2.96543584675738   -2.25883552576808   -0.19000496353356
H           9.53211434275605    0.60931724174076   -0.17189982061414
H           5.71385082536101    4.02881980543525   -0.43705299745846
H           6.29868591963027    6.43223420805062   -0.22810703094066
H           8.62217831509541    7.13020077397972    0.09181242560393
H          10.44141958203396    5.48542805245495    0.21178505137649
H          11.70115883041174    3.66851221905052    0.22356021690919
H          11.78292979485970    2.17809388316836   -0.73134066878944
H          11.59292175136678    2.09438059327587    1.03066262076544
