36
         -69.170190284473          0.000755378251
C           0.38687748538530   -0.52830980423321   -1.71236834518905
C           0.08130795504522    0.79639528563056   -1.86843884705572
C          -1.30939484106455    0.87017043527842   -1.64583101858538
N          -1.81087384270881   -0.31215802387392   -1.37795945829960
N          -0.77915488577898   -1.16581286739350   -1.41743164744985
C          -0.96815073713981   -2.50284025808592   -1.17920894850976
S           0.35028878594645   -3.61827149090941   -1.18970982518358
C          -0.74855189856956   -4.93781908219615   -0.82941311394954
C          -2.05381366585366   -4.48084234248393   -0.71522186149591
C          -2.17724780679456   -3.11112700884687   -0.91084018627536
N          -0.19779481734933   -6.14875858850626   -0.70869578372346
N          -0.99115612698573   -7.14106945447373   -0.47243796648702
C          -0.36464954315606   -8.32876449961220   -0.33220634931906
N          -1.06780440388171   -9.43340631552893   -0.13656223737340
C           1.04391353928601   -8.64961606892496   -0.33959661555242
C           2.28113807957227   -8.03364054786632   -0.48015418944712
N           3.38603878801989   -8.75463515127757   -0.41695547907649
C           3.28404237689324  -10.06326480598869   -0.21583849760716
N           2.18391406532858  -10.77529861869856   -0.06326157660962
C           1.07458707611356  -10.04941041749495   -0.12932385443807
N          -0.22405485825076  -10.46018872310384   -0.01661480815333
C          -0.68635874566535  -11.73933510465582    0.19304714850032
C           0.04910620574512  -12.88344743127138    0.32838712046212
C          -0.77472610263471  -14.00810823978638    0.53216416999934
C          -2.09831033399070  -13.69920009935897    0.54680259282565
S          -2.39025386882541  -12.01975551365577    0.31157592935316
H           1.31219069488652   -1.06334991870246   -1.78497068154161
H           0.74666584060985    1.59991322935596   -2.10649308868200
H          -1.94456145342733    1.73287488520453   -1.67270849228737
H          -2.86113449763214   -5.15535854976959   -0.49500651504057
H          -3.09412308615936   -2.55325683257454   -0.86689154019247
H           2.38889314722807   -6.97039594137002   -0.64354680784531
H           4.21496916994685  -10.61238387191825   -0.17028529415537
H           1.12178687593712  -12.89928033282735    0.28218193157727
H          -0.39420572656190  -15.00485952763549    0.66212001536169
H          -2.93062884351207  -14.36037840244368    0.68235412145032
