38
         -69.125806639445          0.000471128465
C          -1.80437217663135   -0.20437065295738   -1.52010637755458
N          -1.18736166893883    0.95424565140846   -1.82838305117920
C           0.07758282050595    0.66319502602458   -1.97589366703296
N           0.31806856291542   -0.65085036260068   -1.77486796916377
H           1.20034788979166   -1.13381174617618   -1.82658880434451
C          -0.88608401747994   -1.24133971994005   -1.47726474930537
C          -1.04253238477373   -2.62952189005216   -1.20656589477115
S           0.31371891333690   -3.71525453278422   -1.21655529755478
C          -0.72329517796163   -5.07177795318352   -0.83978593211332
C          -2.04301614297813   -4.66121718742658   -0.71429290921150
C          -2.21785723097282   -3.29962889095714   -0.91731047943400
N          -0.12743095660370   -6.26201649810952   -0.70697816172109
N          -0.89758338423736   -7.27752317147743   -0.48560394779733
C          -0.26030883255867   -8.45442219763700   -0.31959522657729
N          -0.98182885447122   -9.55056084277412   -0.12251763212216
C           1.14493879370421   -8.78846794360250   -0.29675976644233
C           2.32924305884910   -8.07351750747560   -0.44018886825539
C           3.51381842170422   -8.77147574695054   -0.35231647541838
C           3.53117401829564  -10.15136932820202   -0.12709436998381
C           2.36982396481650  -10.87943903919849    0.01873170773746
C           1.17122669208050  -10.18124573506392   -0.06762667299472
N          -0.14266379916839  -10.57901623374474    0.02738712251927
C          -0.68471376875253  -11.82667191764259    0.24573809593898
C          -0.17972228203995  -13.08711935190752    0.47099539485386
N          -1.20376339232752  -13.96072588547011    0.62518206485680
C          -2.30207924819282  -13.26963059781979    0.50166844267169
N          -2.04643501465182  -11.96128168813527    0.26869735078518
H          -2.67706027616504  -11.18616894847619    0.13397663217379
H          -2.86000178087382   -0.23845913759864   -1.34581666120758
H           0.84117157198946    1.37153563180642   -2.22651711783329
H          -2.82277645365139   -5.36246791369623   -0.47893811467181
H          -3.16685986425256   -2.79807696913541   -0.86232574910674
H           2.30258765387991   -7.01024333224583   -0.61491038299708
H           4.45220314279118   -8.24828155061375   -0.45923487769947
H           4.48180687725504  -10.65981701760887   -0.06560840215844
H           2.39663840689539  -11.94196897619267    0.19096673541270
H           0.83304413292837  -13.42385490843446    0.53432667747276
H          -3.29061821405344  -13.67480093394967    0.57300733423106
