35
         -63.016966421260          0.000902985130
C          -0.55095150314645    1.26342389399792   -0.31867164111096
C           0.77330572273602    1.33988612801620   -0.38427619051465
S           1.88713903699506    0.20553285765901    0.37581308035289
C           0.71362100122916   -1.06563445845289    0.71814773246841
C          -0.60435563665146   -0.91350650279622    0.67752188901915
N          -1.27031823408383    0.26759210978208    0.34547338542642
C          -2.61738767709882    0.39131538898954    0.53667163074342
S          -3.58334697457495   -0.96343874974766    1.04698244937478
C          -5.03855787148481    0.02591256249250    1.02981635918529
C          -4.73571182289731    1.32222104099430    0.64696263081120
C          -3.38980930510336    1.53121824272359    0.37826346364018
N          -6.16760644858944   -0.58287219053328    1.39013757113211
N          -7.25949444510207    0.11101747608631    1.36128362732739
C          -8.37432190563668   -0.55457300146586    1.75814638353148
C          -9.61762946573256    0.03120293023369    1.75700919744292
C          -8.55071290121658   -1.91128277212499    2.24840081423932
C          -7.68524065240125   -2.97409585021073    2.47685875644147
C          -8.21374097122176   -4.15328213118981    2.96584011256183
C          -9.57567391088573   -4.28880428549306    3.22738029797164
C         -10.45595121827168   -3.24509581413529    3.00812300971061
C          -9.92197679588536   -2.06617602925298    2.51936218088756
N         -10.56009039829272   -0.86605625740773    2.21093879971512
C         -11.85281080580447   -0.63444818401823    2.33496779551133
N         -12.97803908387528   -0.44417934649423    2.44605921634812
H          -1.15456315269191    1.98805530713470   -0.84256037389076
H           1.26542213320677    2.11491108125815   -0.94360383527851
H           1.16402263222136   -2.01182562300892    0.96023440664505
H          -1.25363233864252   -1.74857559487012    0.89608337937530
H          -5.49843783250763    2.07720058883441    0.58616633039138
H          -2.99266026328651    2.49176872679752    0.10418105482196
H          -9.89898337816238    1.02328336898147    1.46246806452302
H          -6.63229434323735   -2.86659509169346    2.27322401016921
H          -7.55912068387068   -4.99193632524538    3.15136097783576
H          -9.95183843669404   -5.22605142903728    3.60889335740807
H         -11.51271206934222   -3.33985206680395    3.20811007578357
