28
         -50.167075061758          0.000442614298
N           1.29228926178082   -0.78800280706545   -1.73673054976733
C           2.38669257473475   -0.57038144605575   -1.46044023091765
C           3.71437183329341   -0.32636769153773   -1.11962482416283
S           4.48949536818718    1.17814108250952   -1.52087556172761
C           5.98054296326040    0.61882651918850   -0.81082863679843
C           5.84277916568408   -0.65702062900269   -0.28185473300469
C           4.56866094758227   -1.18407806365954   -0.45485291297845
N           6.99332072199272    1.49740256793196   -0.74333497621523
N           8.17433418645457    1.03781229068729   -0.51321837839891
C           9.14407752329747    1.94319994998654   -0.29529074410840
C          10.47443895836395    1.57176952092080   -0.10492505305892
C           9.11292200670330    3.38367171658973   -0.19055083852091
C           8.10810205583419    4.33923642303875   -0.29198337240568
C           8.45103010376726    5.66664642338327   -0.13256358945289
C           9.76599271778814    6.05442276269470    0.12840636386856
C          10.78179484645635    5.12547102905434    0.23388862251447
C          10.44014650842967    3.79066371184858    0.06942117808712
N          11.23035040857051    2.66190717945988    0.10109237307610
N          12.58625581221189    2.67378039020412    0.40606232928577
H           6.65600194103795   -1.15189766274243    0.21703390346914
H           4.26203296386931   -2.16026841385787   -0.12157829199423
H          10.89204069001566    0.58318582338232   -0.10992891082139
H           7.09312419926810    4.03668811889017   -0.49262170355004
H           7.68786335034794    6.42651308479351   -0.20812583120212
H           9.99273147243779    7.10262471730430    0.25244066691847
H          11.79590447373906    5.42686570407302    0.44876123341985
H          13.06135796471016    3.39978464155321   -0.12502911450291
H          12.99672498018137    1.76745305642699    0.20265158294750
