39
         -68.845026442899          0.000397495107
C           0.36542395331696   -0.53119592125457   -1.85210047185374
C           0.07351128250969    0.79933645439577   -1.99976076262856
C          -1.28692149736167    0.90449883801629   -1.65594622051615
N          -1.78524452403862   -0.26543312283048   -1.32517245616995
N          -0.77919245029865   -1.13917167920592   -1.44489631541956
C          -0.97135918337089   -2.47334480132145   -1.17507961981412
S           0.32200642592363   -3.61551890503648   -1.31317443872279
C          -0.75928482820795   -4.91664072069607   -0.85052232459769
C          -2.03274958191997   -4.43627550233505   -0.60301463910337
C          -2.15151359532874   -3.05916042938690   -0.78232212411399
N          -0.20741838035391   -6.13415777970768   -0.74614048380062
N          -1.00055668102553   -7.13244109501046   -0.54845257853969
C          -0.40093219584099   -8.33162356642247   -0.37040355259286
C          -1.12099656414156   -9.50461794268657   -0.24071007969656
C           0.99344344789900   -8.69841707925775   -0.24817017762707
C           2.17886187887828   -7.97306637591994   -0.27108375314360
C           3.36454451800495   -8.65517698410209   -0.08842998661436
C           3.38167186347948  -10.03236324831462    0.12841173834598
C           2.21574405329695  -10.77283610434807    0.15433268761497
C           1.02404800582166  -10.09451246221538   -0.05037910287392
N          -0.28212283922488  -10.56204876742967   -0.06063278543906
C          -0.68194832297381  -11.87764049456108    0.07973192304940
C          -0.11627318909112  -13.06798757275462   -0.30836375550906
N          -0.91761761945221  -14.09800947876858    0.05991619576265
C          -1.94587904650740  -13.56907600713047    0.65436263846534
N          -1.86203298325796  -12.21463545552499    0.69689451128680
H          -2.51606338506538  -11.57097399599497    1.11119176927268
H           1.26960996079438   -1.08600124324065   -1.99917448244677
H           0.73141884271108    1.58477875468962   -2.30841497841282
H          -1.90577230112864    1.77921593414255   -1.63849075322877
H          -2.82838307830796   -5.08970423140154   -0.29503050750640
H          -3.05080256259300   -2.48828479463825   -0.64324267408678
H          -2.18440039659664   -9.63177359263477   -0.30862705335534
H           2.15517966578372   -6.90670877669238   -0.42663208203581
H           4.29925483989058   -8.11484943010275   -0.10449645572820
H           4.32653594871336  -10.53138674049504    0.28327138816146
H           2.23384367080652  -11.83458626188174    0.34137956581587
H           0.79331679132826  -13.24152602690640   -0.84431398355425
H          -2.77034994307001  -14.11776339103484    1.06151618135638
