24
         -46.480666557368          0.000800068336
N           1.04137064370973    0.00881542131450   -0.14490713512013
C           2.39196970698149    0.11746653429882   -0.05615192407655
S           3.16378268673354    1.66444837372135   -0.04582831742410
C           4.75310145876467    0.89925492966687   -0.00986285678748
C           4.62207676455774   -0.48398816643015   -0.00352311714600
C           3.30651839835038   -0.92255429383084   -0.02981795699208
N           5.79999954830566    1.71562205556312   -0.00207003386934
N           6.97772504703438    1.18536939773000    0.02983377421356
C           8.01874897095587    2.05334175618800    0.03315410346866
N           7.97533081594135    3.37889090367227    0.02445536501901
C           9.38935677076674    1.61598998003655    0.04978374786207
C          10.14169869561616    0.44997139101205    0.06433279811114
N          11.46138540045524    0.51422455579827    0.07665796800550
C          12.04199197288550    1.71021709136922    0.07434316822220
N          11.46175928714015    2.89378045541560    0.06105235124607
C          10.13468133278402    2.82587035841250    0.04884590429162
N           9.23476770620198    3.83235123799264    0.03402615415678
H           9.41340428910267    4.82438540699455    0.03011687398981
H           0.48638085121372    0.82866760664719    0.03086917015093
H           0.62414100506401   -0.87984330828557    0.07759460027033
H           5.48716769723834   -1.12180035765896    0.01885115749941
H           3.01026391121829   -1.95644488557775   -0.03280035041296
H           9.69627648241062   -0.53561412280440    0.06635412216652
H          13.12381055656777    1.71135767875419    0.08470043315504
