26
         -50.275179611510          0.000292014689
C           3.25541601584574   -1.33661476183367    0.31502793104757
O           3.13800144236975   -0.04677241571426   -0.25137221346404
C           3.43647486182446    0.99758772849465    0.53092740169175
S           3.26462961987982    2.56756434284948   -0.16561223589037
C           3.78221938964936    3.30700507333403    1.34661912621793
C           4.06162803181742    2.33993033513904    2.29675359643948
C           3.86933816517132    1.03793129472912    1.83894503381912
N           3.84933326524552    4.64166945125086    1.37039621921252
N           4.17867268542154    5.20473870268556    2.48156902718781
C           4.27133592856955    6.55671193578661    2.41150135026623
N           4.50705854809942    7.26318532464086    3.50485983429087
C           4.18261388430514    7.43881128835823    1.27146473165098
C           3.98014125793731    7.40238307558797   -0.10237932806887
N           3.98552434483271    8.52614788992249   -0.79724975478339
C           4.19078307476145    9.67313929285676   -0.15902084917111
N           4.40076337536534    9.85796157825877    1.13003968860387
C           4.39200649033565    8.72766370813858    1.82733026854665
N           4.57558566271622    8.55199880941800    3.15634570685141
H           4.74417415542168    9.25629946665556    3.85718326691883
H           2.95285132765800   -2.02941372821369   -0.46728980283951
H           2.59692605429337   -1.44790468475121    1.18092903157285
H           4.28737652005467   -1.54376398696778    0.61165472946986
H           4.39646275933038    2.60411816478887    3.28341953887632
H           4.04114951872362    0.16496135685489    2.44188767335507
H           3.81310997471105    6.48238599446764   -0.64529342348529
H           4.18751364565962   10.56444476326259   -0.77229654831650
