22
         -40.589880312555          0.000344105970
C           0.91351681436262   -0.13638471108412   -0.09016192224647
C           2.39450471953533   -0.01860982891705   -0.08440770291637
S           3.16341826713793    1.52001659722532   -0.07371353729891
C           4.74505343757131    0.77015884124645   -0.07116244630940
C           4.63338008747812   -0.61184436919295   -0.07857397242972
C           3.31052868536308   -1.04560431482260   -0.08593763840977
N           5.79963230729892    1.59595282605610   -0.06197576764352
N           6.97017726360399    1.06564961831117   -0.05984445611730
C           7.98852567499485    1.97076480543441   -0.04948001147178
C           7.94275203386629    3.40725030463822   -0.04163486982634
C           9.24163615082305    3.79581669072903   -0.03227572744933
N           9.23934481856648    1.54367532465639   -0.04503666299349
N           9.99963197040289    2.64454734229295   -0.03453667902384
C          11.32640491638462    2.60590924835429   -0.02699518426499
N          12.47087875083574    2.61545484724511   -0.01987707993889
H           0.45114070191006    0.84669401985479   -0.09323793305927
H           0.57350322915281   -0.68252426287616    0.78970261809150
H           0.58042535479940   -0.68522643469394   -0.97092594740070
H           5.50099295869117   -1.24638993198402   -0.07825134342436
H           3.01888684731571   -2.08130975412692   -0.09225029974791
H           7.05859225866470    4.00873685671685   -0.04315403517226
H           9.70856275123998    4.76057628493765   -0.02422940094658
