40
         -72.061497068513          0.000786007016
C          -1.27775974477931    1.75818208687732   -1.61298556159002
C          -0.01858191474361    1.84537397669462   -2.02700269882930
S           1.10236402124376    0.49244145592212   -2.16041594132405
C          -0.07842344309086   -0.80167210802495   -1.96285919189286
C          -1.33130617499188   -0.63623716908476   -1.55645649256436
N          -1.92643963841452    0.58280640063212   -1.22990792969248
C          -3.17433079087936    0.62477643723795   -0.67401803563468
S          -4.13602923747598   -0.81770598438640   -0.51204667719376
C          -5.45060850430072    0.09997466936636    0.21127347576449
C          -5.11020770733722    1.44039763457016    0.30361712172076
C          -3.84308519409478    1.73443512318066   -0.18011330904765
N          -6.52007978801568   -0.59870858471843    0.58276032644332
N          -7.52499287287977    0.05919778650304    1.07329360587356
C          -8.55466227780083   -0.71405717457564    1.47902287474367
N          -9.64945868657984   -0.13758680941682    1.95498683771394
C          -8.70266566293261   -2.15079415634613    1.52436399266411
C          -7.90325513014930   -3.23378426949771    1.17488294147118
C          -8.40926202361382   -4.49836888497126    1.38135192958826
C          -9.68258610794298   -4.69248797939209    1.92514950508522
C         -10.49129370321606   -3.63421564334720    2.27980799080702
C          -9.98716579723710   -2.35549719682364    2.07312436379952
N         -10.50746933920008   -1.10517283377297    2.30923888800321
C         -11.72352588475425   -0.72709294780582    2.83424518641141
C         -12.83278710293157   -1.38839802701036    3.30859540041072
N         -13.75724531843336   -0.48321267338832    3.71434162639851
C         -13.24125685502366    0.69401243561027    3.50010570310581
N         -12.00116787034148    0.60649761245328    2.96337506884697
H         -11.35209768648487    1.32825923763383    2.69121702104326
H          -1.89384952222881    2.64316951435013   -1.59539519161693
H           0.40419702385377    2.78362725088874   -2.33908568094461
H           0.30665326788333   -1.77362687680885   -2.21362318426998
H          -1.98574907448673   -1.49038487498732   -1.46702668671301
H          -5.78917661012508    2.15561870535398    0.73120435969244
H          -3.42187120778190    2.72286850337980   -0.14433096403425
H          -6.92331685499276   -3.07080887203544    0.75645183321097
H          -7.81499832759275   -5.36170391113597    1.12113408785562
H         -10.04054694464040   -5.70061100387397    2.07309614907709
H         -11.46932350359660   -3.79723297161547    2.69999203445825
H         -13.03100916465070   -2.43608551505663    3.38695892675545
H         -13.72690864523963    1.62354763742438    3.71631629440465
