27
         -49.967384131787          0.000545456442
C           0.83458310671938   -0.34994794285623    0.02792236462657
C           0.50158801353358    1.01936965073594    0.02228137657611
C          -0.86053442273342    1.07475023039712    0.02105560874928
O          -1.39064671279649   -0.15727151030099    0.02585693605858
C          -0.35949387622449   -1.03603565448907    0.02976308410998
C          -0.63235440007381   -2.43755023057656    0.03168812880352
S           0.65176583189123   -3.59704009483409    0.02628940294062
C          -0.49998112729807   -4.91369707009877    0.02851680548458
C          -1.80129808099427   -4.43526009926671    0.03253502527876
C          -1.87292238221957   -3.04833003052356    0.03362388438299
N           0.00403386407270   -6.15897612800113    0.00630079619894
N          -0.84386871239954   -7.12752932504725    0.03903567774640
C          -0.29684551066053   -8.36752674975829   -0.01487177189485
C           1.05551631127594   -8.78344193423782   -0.16957483633592
C           0.99928831281767  -10.15025829722232   -0.17980757738652
N          -1.09581856718214   -9.43870765420801    0.07410553783286
N          -0.30580732923869  -10.48124559265126   -0.02809619931757
N          -0.81635027008093  -11.76458022902950   -0.03048172604962
H           1.81208155339254   -0.78637779824985    0.03039662714151
H           1.17892592072392    1.84832805040674    0.01918881283296
H          -1.54377739325148    1.90083085171226    0.01661767510072
H          -2.64242745092512   -5.10436734518921    0.03175166269371
H          -2.78821585871201   -2.48377651728362    0.03591527283177
H           1.90752541646085   -8.14421534482354   -0.26363942150716
H           1.75415985154469  -10.90340701068354   -0.27628792472403
H          -1.82662185476704  -11.69542752020100   -0.12794811055553
H          -0.59555423287481  -12.25212870371938    0.83695288838103
