33
         -63.218225568531          0.000873361736
C          -1.15657990536811    0.09188268642553   -0.03783227549756
N          -0.41943027847597    1.21954558888511   -0.10915008053903
C           0.82576355877496    0.83332119237182   -0.19649659227839
N           0.93642805237285   -0.51304911230584   -0.18512470572857
H           1.77582340590909   -1.06701300034157   -0.24042735373651
C          -0.33511636143720   -1.02300779688401   -0.08292036883449
C          -0.62693298733132   -2.41563140948797   -0.04020175248747
S           0.63347928994812   -3.60994292290024   -0.10870287641553
C          -0.53676103308902   -4.90502258526098   -0.00386632420506
C          -1.82597941905260   -4.39461464802758    0.07719496115612
C          -1.87370595685516   -3.00790893662484    0.05652562842548
N          -0.04755462134271   -6.14817279349244   -0.02517415854652
N          -0.90531163291784   -7.11188038951245    0.06571793064940
C          -0.41699917597302   -8.36401141504514    0.02914991874224
N           0.86267472432997   -8.73839487476940   -0.09601183297739
C          -1.24269870467922   -9.53128743978376    0.13175677635765
C          -2.57592138001380   -9.90185065866307    0.28614381046216
N          -2.91083933180591  -11.16911460364299    0.35340108468268
C          -1.94501195016563  -12.10904688756665    0.27830095406792
N          -2.35895465088615  -13.38623896783256    0.40958382715710
H          -1.70879328583805  -14.12344994096575    0.20565175516419
H          -3.34658133107676  -13.56332393786869    0.37693177599389
N          -0.63900979995653  -11.90046403128320    0.12475541106373
C          -0.32876060485447  -10.61029035912785    0.04835751392149
N           0.89883368025662  -10.05879969930170   -0.08959812051677
N           2.08223582334209  -10.73769429903015   -0.29385286197280
H          -2.22356276574248    0.13361593918009    0.04127561898245
H           1.66584021388109    1.49449009060022   -0.26880058796632
H          -2.67868266370287   -5.04536945517664    0.14655972466786
H          -2.78091495984727   -2.43359617392260    0.10958844050853
H          -3.37886813520004   -9.18093421758228    0.35571896401717
H           2.07029793224450  -11.61178840707854    0.22319443646182
H           2.85942425455266  -10.13950653398409   -0.02943864077938
