32
         -59.527089704812          0.000716738090
C          -1.25169779637486    0.02980869350819    0.02062962797231
N          -0.52171101460664    1.16290964354396   -0.02216521428582
C           0.72818000471959    0.78739377876297   -0.08505140251534
N           0.84917020382837   -0.55802200072954   -0.08522239449972
H           1.69372842168458   -1.10545773941032   -0.12652667820058
C          -0.42074745803134   -1.07834112849353   -0.01733164944123
C          -0.70201489499784   -2.47376913738429    0.00445902625180
S           0.57168596849224   -3.65189959669359   -0.05132308759666
C          -0.58675510709447   -4.96126018806057    0.01393549917030
C          -1.88183527055712   -4.46780682541701    0.07493666494735
C          -1.94368076253516   -3.08068605678737    0.06993128688178
N          -0.07365116247703   -6.19688778990711    0.00234712204793
N          -0.89502931535755   -7.18990212324843    0.04192547384203
C          -0.29096961111052   -8.40606113113138    0.03631723458370
C           1.09700871431139   -8.74387485509663    0.00427208289097
C           1.12265182663083  -10.10589734179787    0.01885176468258
N          -1.03231808851136   -9.51368258690180    0.06759761624825
N          -0.17433828128392  -10.52670398149886    0.05670683997078
C          -0.62997836940657  -11.82649748261299    0.08293679641291
C           0.00738707259982  -13.04544472225895    0.08517571693702
N          -0.91829224263245  -14.03377472377804    0.11759604011044
C          -2.08306599290120  -13.44870804616359    0.13463995077003
N          -1.96871100892697  -12.09887376454583    0.11480626950636
H          -2.68069981348166  -11.38527188529954    0.12115184002771
H          -2.32046573980549    0.06297450502479    0.07588342239278
H           1.56427210696643    1.45585939448625   -0.13122742282354
H          -2.72815545888946   -5.12880235555203    0.12145974207468
H          -2.85790705422708   -2.51679444101359    0.11202994083033
H           1.91297448961886   -8.05370762844703   -0.02410663922027
H           1.93123715005707  -10.80745782257011    0.00592473109813
H           1.05434762828381  -13.26777024885837    0.06612216752747
H          -3.02260914398444  -13.96183041166789    0.16108763140561
