22
         -40.128748972436          0.000597790769
C           1.36073689070456   -0.55301828198501    0.94204807923719
O           2.30346020268578   -0.02802000912361    0.03080506973450
C           2.90050060713049   -0.89978400171871   -0.79910853098110
S           4.02777001802278   -0.24785345750288   -1.93475072568825
C           4.32583207989527   -1.85749292769491   -2.58021394153092
C           3.57049977259719   -2.80113116899821   -1.91415902443828
C           2.76418255345828   -2.26303505926896   -0.90778484116483
N           5.20223366147219   -1.95060329101204   -3.59410054515342
N           5.41772643301713   -3.12229887637440   -4.07495839775708
C           6.30807813746206   -3.15878797348201   -5.10595622919069
C           7.04593705494758   -2.11063715721932   -5.73147096238063
C           7.77138871508139   -2.73692269130283   -6.70435515415838
N           6.58897381595406   -4.32763651700020   -5.68229975109154
N           7.46323604847149   -4.05587604559773   -6.63362343914891
H           7.82013846605550   -4.80304433040791   -7.20889270694293
H           0.98714337915462    0.30075424064330    1.50329711738072
H           1.82819400754735   -1.26754663410673    1.62577090068949
H           0.53373278528459   -1.03953551071618    0.41680138972947
H           3.62026948989313   -3.84362641601441   -2.17085874108437
H           2.11238319910740   -2.85453521568901   -0.29094141467926
H           7.01718018429417   -1.07345042571770   -5.47378251218921
H           8.46738249776289   -2.36058824971045   -7.42716563919149
