25
         -47.013880729585          0.000622950471
N           1.07846506724468   -0.32613030600655   -0.06931163072227
C           2.21988561850320   -0.19898357290759   -0.06302753573791
C           3.60850636481890   -0.06094226117456   -0.05532598986654
S           4.35681498549417    1.50039601009720   -0.05493653440059
C           5.93478077569736    0.75961817606716   -0.04364290255974
C           5.84691122560062   -0.62657246663627   -0.04073377275075
C           4.53687149848256   -1.08691825288470   -0.04731255817368
N           6.97945601676670    1.60584989630093   -0.03860082514936
N           8.15337560136213    1.08191162880317   -0.02978156705300
C           9.19750138988915    1.93976077210071   -0.02318989936920
N           9.14407096738433    3.27149997057501   -0.02466987775036
C          10.57042427329723    1.50897352039735   -0.01204100408835
C          11.23212325694785    0.28478468075186   -0.00570485609684
C          12.60928980144966    0.30091697733717    0.00561815021665
C          13.33102235298318    1.50126999798637    0.01064887367516
C          12.70022979711452    2.72530132621040    0.00441861715197
C          11.30952760882868    2.71311582356399   -0.00702438279757
N          10.38743674975709    3.71862878895138   -0.01521362588388
H          10.55788150651580    4.71291205609438   -0.01451050797843
H           6.72300088905609   -1.24904893353947   -0.03400172060484
H           4.25199496843089   -2.12450603919999   -0.04636878866368
H          10.67374430949495   -0.63736865103871   -0.00958568379165
H          13.15441171578567   -0.63102364513788    0.01088904318369
H          14.40990931740434    1.46148626411203    0.01974145998987
H          13.25443394169024    3.65114823917653    0.00829751922121
