19
         -41.639111665586          0.000534179541
F           1.00280038125327   -0.14092748708554    0.04622672732917
C           2.32360274990042   -0.00863209648197    0.05862381238776
S           3.02941038520497    1.55846082233331    0.06108091209530
C           4.62040666647712    0.82028109379970    0.07853307413232
C           4.53953855567250   -0.56114929068951    0.08156949783321
C           3.22678065185088   -1.03611249578083    0.07024122817645
N           5.66677380957353    1.66329631010284    0.08776743983471
N           6.84033360254586    1.14714182341711    0.09997876463570
C           7.85425487273085    2.05717570320756    0.11065687045552
C           7.80683151870966    3.49282805369211    0.11048842917923
C           9.10601749456285    3.88225128682203    0.12510978507881
N           9.10654968998214    1.63153776053125    0.12451688293692
N           9.86353274576535    2.73101264852197    0.13328346036937
C          11.19180671130228    2.69371248219905    0.14871499295341
N          12.33567880038134    2.70590839926231    0.16208056772515
H           5.42108361322093   -1.17576710031495    0.09192358697937
H           2.94226226615802   -2.07213319899271    0.07048396553728
H           6.92226001778696    4.09348216063318    0.10074377229044
H           9.57257546692121    4.84708312482309    0.13063623006995
