33
         -63.562782115528          0.000939570733
C           0.88398752178419   -0.35930028166581   -0.18155248835364
C           0.57042163369951    1.01447856977653   -0.17995906164382
C          -0.78715909554889    1.09021815583610   -0.07916916792635
O          -1.33230083548644   -0.13356883186937   -0.01863724621969
C          -0.31629206825162   -1.02761837475383   -0.08061702187768
C          -0.60964689498399   -2.42363336274677   -0.03552142634277
S           0.64937950085690   -3.60815816982181   -0.10325916718471
C          -0.52336469495135   -4.90250195668350    0.00486237434221
C          -1.81474144895492   -4.39553342458399    0.08628980479045
C          -1.85999402815496   -3.00932599213117    0.06310944994639
N          -0.04101777566791   -6.14977113427295   -0.01792627930074
N          -0.90237899249367   -7.10882641980097    0.07946635128687
C          -0.41713664886106   -8.36286632636640    0.03832525992008
N           0.86050750975076   -8.73840658933923   -0.09611134526601
C          -1.24308724662570   -9.52965794023015    0.14606069032801
C          -2.57565587534943   -9.89917422744074    0.30842300110428
N          -2.91156596997035  -11.16626337243065    0.37650939963141
C          -1.94694906995467  -12.10659039454598    0.29474486981158
N          -2.36095797869289  -13.38375919373579    0.42824154065786
H          -1.71140803583507  -14.12085668798446    0.22288766833839
H          -3.34867126483124  -13.56026371467522    0.40353583924670
N          -0.64200756338375  -11.89959584161855    0.13249105769343
C          -0.32998120904408  -10.60988961955289    0.05488570908668
N           0.89648383001409  -10.05904106790571   -0.09106771605900
N           2.07937982899737  -10.73688446864701   -0.30257754933974
H           1.85282451612710   -0.80961806719650   -0.24772094513539
H           1.25706046428517    1.83318796601472   -0.24461495802346
H          -1.45752489214859    1.92597182824762   -0.04214941675083
H          -2.66841492019896   -5.04480494178680    0.15725895676574
H          -2.76184231848449   -2.42566264220919    0.11525576286838
H          -3.37718882705114   -9.17732094224399    0.38393331980197
H           2.08086579156912  -11.60015596793407    0.23344832229388
H           2.85682705784060  -10.12948656570158   -0.05948558849053
