29
         -56.354875597784          0.000868545253
C          -1.16240329004548    0.07122691101747    0.02660528039376
N          -0.40881135925520    1.18783018900116    0.00884822813477
C           0.83505268169411    0.78643434364757   -0.02409924390984
N           0.92860229710835   -0.56000305593319   -0.02856143511737
H           1.76318659230479   -1.12375466259655   -0.05102061582398
C          -0.35319605186593   -1.05502423269242    0.00393984521448
C          -0.66301201812947   -2.44334598866178    0.01093259275013
S           0.58274450923145   -3.64915664109680   -0.02101616499686
C          -0.60792114889419   -4.93155310550159    0.01096626247013
C          -1.89490704263639   -4.40479252606925    0.04354950388750
C          -1.92382717082599   -3.01983190779304    0.04349692669904
N          -0.12822892435808   -6.17539300279184    0.00179172175442
N          -0.97860033444493   -7.14369372695060    0.02740355994120
C          -0.45472361860882   -8.39343895430012    0.01983790745462
N           0.82839460816905   -8.73320936771709   -0.01191037001755
C          -1.26652162159548   -9.57963409622618    0.04863445710300
C          -2.59986592391699   -9.96781198660642    0.08658663262540
N          -2.91268468567648  -11.25019245678491    0.10374554279741
C          -1.93368371114236  -12.14944950286849    0.08396953385126
N          -0.63419423545541  -11.93060712787087    0.04770725611850
C          -0.32199846436156  -10.63992876343994    0.03061371210745
N           0.90164943068753  -10.06536221843638   -0.00554577547122
H           1.80047136394474  -10.52200355781641   -0.02622726124007
H          -2.23129112207544    0.12663664335534    0.05451076629324
H           1.68494944522962    1.43855797063819   -0.04507146341462
H          -2.75781666282631   -5.04553104769550    0.06626379310657
H          -2.82409362971345   -2.43311112321598    0.06649373569812
H          -3.41785611978983   -9.26070449678559    0.10335451535208
H          -2.24142379275181  -13.18627250780879    0.09951055623844
