35
         -67.383748357752          0.000997236733
C           1.00948702595882   -0.14627405009540   -0.39856685295268
O           2.30301301862536    0.00712051068628    0.14871835513413
C           2.98097364828374   -1.11310563237384    0.44062326134591
S           4.55594899122918   -0.91962069070180    1.12313002083858
C           4.74701083924482   -2.66696788732665    1.20982512489648
C           3.62147338284362   -3.30767919241563    0.72054040257144
C           2.62459286795910   -2.43420615370021    0.28671882564964
N           5.89451641170602   -3.12190267490319    1.72206105252467
N           6.03577249522960   -4.40210713715867    1.79461334434941
C           7.19356801593252   -4.85270441789166    2.32847674244890
N           8.21254177474422   -4.13496007098764    2.78284653745833
C           7.47569915465158   -6.25221739908448    2.48940330586503
C           6.89416545439610   -7.49401058741946    2.25832472158727
N           7.52756989740282   -8.59774179759773    2.58526848545576
C           8.74950825826334   -8.50101906470850    3.14549057128579
N           9.36649583094996   -9.66473360699008    3.42763058005632
H          10.22113863122164   -9.63572502362931    3.95307171727763
H           8.84107428791348  -10.51608871514687    3.34816851760694
N           9.41504867675769   -7.38005080017361    3.42431239711948
C           8.75907590736338   -6.28297419029024    3.08531937475673
N           9.15007349766777   -4.98234859630911    3.23516694685645
C          10.32328407102666   -4.49742191942418    3.76947559208251
C          10.73880490610535   -3.20298893748289    3.93133051885231
C          12.01631939989797   -3.29740698003067    4.53069894490094
C          12.27010625951749   -4.62568546769275    4.68237614365186
O          11.24176893905859   -5.36445742153586    4.22052908098049
H           0.63388903647880    0.86290120103508   -0.55344153407306
H           0.35093367636766   -0.68259782736453    0.29065750020429
H           1.04597013742523   -0.67645323408100   -1.35455968049268
H           3.55273565419530   -4.37989626040598    0.69235291876114
H           1.68512858165899   -2.76105381020158   -0.12069073769866
H           5.91535635780792   -7.60645025009067    1.81260702346250
H          10.19391328095648   -2.32602029183417    3.65483555446822
H          12.65453494707069   -2.48445048765970    4.80885785051561
H          13.10702668408806   -5.15825113501320    5.08661739225229
