31
         -60.111586674442          0.000486552302
C           0.79800824330246   -0.34699328773931    0.29912467208581
C           0.48286535574883    1.02501381976188    0.25446735706784
C          -0.85732612514027    1.09500705845990    0.00980098145743
O          -1.38970366636743   -0.13009346433382   -0.10040354620481
C          -0.38359468031030   -1.02042211428285    0.07512561306088
C          -0.66323760952125   -2.41743680487494    0.00425820977931
S           0.58507138567084   -3.59088146113142    0.23512998301179
C          -0.55542667082313   -4.89405576889872   -0.02402607963517
C          -1.83073344854834   -4.39804874649078   -0.26641953100620
C          -1.88835140346622   -3.01283701722360   -0.24729406927438
N          -0.07523717966195   -6.13819587327866    0.07073371110310
N          -0.88799648695974   -7.10877327953918   -0.19455184315386
C          -0.35615865069107   -8.33685561304439   -0.03255394718510
N          -1.06759868013068   -9.42023738340662   -0.34638794250866
C           0.93633590178249   -8.74190205597953    0.45622649332002
C           2.13054516553113   -8.20623462060592    0.92642316989990
N           3.12493264373617   -9.00735673253608    1.26108599186395
C           2.96354164267813  -10.32260617425219    1.13842729670487
N           1.89601923607233  -10.97071706828310    0.71872421368781
C           0.89302961014716  -10.15903153326421    0.39361197789896
N          -0.32876623353810  -10.48513530746292   -0.08959403251445
N          -0.84058181402688  -11.75532292294950   -0.23300259724491
H           1.75581368482128   -0.79394959690947    0.47001321032999
H           1.15650953153737    1.84651858756110    0.38568214271417
H          -1.52158578768170    1.92892833905475   -0.10278378217766
H          -2.66193704934823   -5.05673542557026   -0.44148598653837
H          -2.78042004404752   -2.43517567094504   -0.41146139738198
H           2.29197155020800   -7.14235153754108    1.02908238681524
H           3.81309100103444  -10.93242094610658    1.41472533011298
H          -0.10170391104613  -12.40043475547956   -0.49697706735145
H          -1.60489551096220  -11.73877264270689   -0.90112091873672
