30
         -48.849229626300          0.000300885957
N           1.04244584765047   -0.44890064191397   -1.25911751335004
C           2.37471076502927   -0.28769009684265   -0.97795367023256
S           3.07155498086863    1.29556993191862   -0.87030474643349
C           4.67285922733362    0.60367612335843   -0.61913167208310
C           4.60655299285530   -0.77496687381837   -0.62453720538894
C           3.31896853989010   -1.27604086312407   -0.82558333573434
N           5.67808354732282    1.47688126720237   -0.47747479719194
N           6.86018203139252    0.99635422205155   -0.27452821835829
C           7.84900755255850    1.91541783113203   -0.15000955992198
C           9.16893423457708    1.56139463597466    0.07001866781502
C           7.82786712644715    3.35878854579885   -0.20861703727103
C           6.82612492564639    4.30373584809018   -0.40130400638433
C           7.17663698594245    5.63818430135534   -0.39794640317935
C           8.49847070720730    6.04248282598317   -0.20776944568723
C           9.51007389216463    5.12322789966917   -0.01470839880688
C           9.16300043726881    3.77931216619816   -0.01644640687476
N           9.95133804818699    2.66435715984068    0.14962458093655
C          11.36799952865309    2.68275123480111    0.37007706473889
H           0.45391364805862    0.35213619151988   -1.09710550465925
H           0.63919309773423   -1.33309931462195   -0.99179163260151
H           5.48621831892228   -1.37661295810345   -0.48473434893058
H           3.07724981835542   -2.32363953785798   -0.86281218385302
H           9.58065983286339    0.57575054294531    0.17256484018294
H           5.80659309135806    3.98571791517680   -0.54829187879010
H           6.41582120793398    6.39063207272484   -0.54552615123304
H           8.73433471506879    7.09673644046728   -0.21190960865042
H          10.53167805436472    5.44181045636941    0.13158429854172
H          11.60594207583330    3.23082873287696    1.28545136993216
H          11.87909652545884    3.16668497375664   -0.46611599051177
H          11.73323824305361    1.66176896707141    0.46458889398180
