30
         -60.875058111830          0.000840517676
C          -1.26588839796597    0.05416279449424    0.09542886959953
N          -0.55967836556634    1.19857970738951    0.14212477102795
C           0.70094882262738    0.85025007143531    0.12919916775644
N           0.85176223002468   -0.48965785262431    0.07644570918943
H           1.71147001844285   -1.01459090501035    0.05511842580971
C          -0.40885955475317   -1.03771974417443    0.05262784281636
C          -0.66962750224818   -2.43283138439589   -0.00583118749426
S           0.61079809628454   -3.59992585061369   -0.02921647549079
C          -0.54312392992582   -4.91291347871916   -0.10800904326022
C          -1.84736407843620   -4.42566601736995   -0.11114322866268
C          -1.91541749892236   -3.04543069067601   -0.05239975408835
N          -0.04342799565262   -6.14843136121453   -0.13366877895576
N          -0.87755525922385   -7.12314243840379   -0.26065161222116
C          -0.34188671659592   -8.35929310969668   -0.15855017687830
N          -1.03313364034758   -9.41501424869043   -0.53399565275954
C           0.92352342376749   -8.77140981727276    0.41713893597901
C           2.06355564953260   -8.22718859329195    0.99404495772646
N           3.03483295181301   -9.02250089683279    1.40558916402597
C           2.89064034100678  -10.33407381498416    1.26771915430194
N           1.86095820902767  -10.98212296875153    0.75282587552750
C           0.89703265927172  -10.18114975411828    0.33344699465220
N          -0.30151262923672  -10.51838817138487   -0.25136337059295
C          -0.72644262529944  -11.74575331582774   -0.53219096031232
N          -1.07994369054959  -12.80748222068324   -0.76708369473199
H          -2.33654568883466    0.06481962111287    0.09612186981252
H           1.52232447183309    1.53774388442195    0.15676060417282
H          -2.68907851114888   -5.09296413105313   -0.15552211775707
H          -2.83196975705747   -2.48455969006794   -0.04510400448502
H           2.20321331626939   -7.16279532913647    1.12322435223338
H           3.70779565186945  -10.94684029385738    1.62222336305827
