22
         -39.746273198355          0.000471247387
N           1.08572974391135   -0.20615525138412   -0.18193867641992
C           2.44027783968315   -0.05049674423990   -0.09309962279102
S           3.15462539112800    1.52722921132291   -0.08960237837753
C           4.76918217852519    0.82396453778261   -0.05537491250395
C           4.69454776273106   -0.55665020678694   -0.04698725454548
C           3.39146029187379   -1.04829462000434   -0.06873811676639
N           5.79676347020956    1.68085675117775   -0.05683730345712
N           6.98164563685026    1.17674089617738    0.00863477023949
C           7.98991058144989    2.08720123400691   -0.02216658478872
C           7.96697474627450    3.49901946844169   -0.19468398739843
C           9.28287966382163    3.87428271147113   -0.16892991215889
N           9.25208829547703    1.66445125652944    0.11146862698703
N          10.00071835163211    2.74224550117866    0.01852075543708
N          11.38102626989923    2.65960494747323    0.06915015668190
H           0.51974974151848    0.59767094520372    0.03361627367027
H           0.71263987229530   -1.09347420000800    0.11519747504680
H           5.58411220077302   -1.15962724863625   -0.02771974937343
H           3.13849106092324   -2.09371371367662   -0.06942551848085
H           7.09852676552002    4.10957172393818   -0.32386625292208
H           9.76408086457519    4.82631795685525   -0.26178487671916
H          11.63345934054513    1.68339700978400   -0.06480198155444
H          11.73284993038288    2.96789783339326    0.97545907019483
