29
         -56.699445211733          0.000712212962
H           1.14877495143548   -0.32051595894966   -0.77580121352619
C           2.21364749954705   -0.24131895417522   -0.67682377908177
S           2.94714359112970    1.30113595939737   -0.68368658739867
C           4.52624109085861    0.57455979987676   -0.49749290426405
C           4.43228875059167   -0.80671149875456   -0.43581019467697
C           3.11676582895872   -1.26062605600425   -0.53711294743183
N           5.57419646751066    1.41142604864032   -0.43384262104584
N           6.74182626022992    0.87797385009851   -0.32793297305359
C           7.75864370652111    1.76678124224109   -0.24954852028351
N           9.00758879466632    1.33450615941703   -0.17278220341731
C           7.74129788235251    3.21017002217876   -0.22120613770542
C           6.84557826751045    4.27258567528500   -0.25811941770681
N           7.29470152890162    5.51272779513991   -0.20195543455689
C           8.60494487058293    5.71508003020348   -0.10909652337151
N           9.56131525603160    4.80893201768498   -0.06340715767658
C           9.10851175699528    3.56476517448041   -0.12096959309752
N           9.81822502243111    2.39488160155602   -0.09746804064141
C          11.18407926543695    2.22678365066152   -0.00800077113243
C          11.92408413198683    1.07502147820202    0.02040418224380
C          13.26780143370868    1.50292892388734    0.12042521005689
C          13.23425906697464    2.86392507654713    0.14571151670344
O          11.96788253638940    3.31168719619831    0.06720884603279
H           5.30266360219867   -1.42586898485611   -0.31960178484215
H           2.83440285383671   -2.29765524277367   -0.51030952865646
H           5.77616128492530    4.13245356235649   -0.33277775056315
H           8.92558259779839    6.74721815423699   -0.06585917941095
H          11.54331804305796    0.07728671641783   -0.02562522264102
H          14.13605348664478    0.87926550544788    0.16791026088531
H          14.00724017078764    3.60242105535799    0.21378047026006
