38
         -72.623332470304          0.000682624222
C           0.86699912952534   -0.39587092367605    0.13884475291367
C           0.63467230907826    0.95322314788709    0.15123804106040
C          -0.76890276049039    1.07286238237007    0.13180775723005
N          -1.34573376777720   -0.10591395667640    0.10942201991571
N          -0.35045289732991   -1.00182947788856    0.11366863826269
C          -0.61944627594708   -2.34776006806187    0.09583195243695
S           0.64437636627564   -3.52600010720281    0.10484287139630
C          -0.54258141391627   -4.81789672613237    0.07487689691791
C          -1.83211970833358   -4.30457854309162    0.05898336414592
C          -1.87610798822668   -2.91576602599119    0.07102899798697
N          -0.05783326346469   -6.06243291122914    0.07566142044820
N          -0.91564930561215   -7.02703262065002    0.05311985368383
C          -0.41111002850682   -8.27870271164548    0.05395897565758
N           0.87118483785118   -8.63161702680427    0.06101465344407
C          -1.23970427604574   -9.45363948642187    0.04276970654538
C          -2.57696325474954   -9.83801933301176    0.02514205971209
N          -2.90314853013279  -11.11066284768421    0.01567654560824
C          -1.92717137352644  -12.03964013054696    0.02494979294476
N          -2.32590571135589  -13.32336112790633    0.04680294669765
H          -1.63434280654143  -14.04462518531950   -0.04638999241657
H          -3.30176163899502  -13.52505336787379   -0.06671997449048
N          -0.61268534661030  -11.80746822103240    0.03446899962615
C          -0.31394016691678  -10.51979752943228    0.04516775724008
N           0.93134457991871   -9.96720566413848    0.05514177580730
C           2.11767165241768  -10.65858758871112    0.05823341447151
C           3.38083642369243  -10.13755164332742    0.06767964150177
C           4.36246648057869  -11.14809369218285    0.06831984934447
C           3.83155455796879  -12.39835418475318    0.05930926348099
S           2.10739909753119  -12.38947706756585    0.04962799331537
H           1.77294861400516   -0.96675604772861    0.14552183780144
H           1.35573294955136    1.74351713232501    0.17132826495930
H          -1.36279142902932    1.96480579873868    0.13366004543759
H          -2.68939894540318   -4.95240173995952    0.04018546955480
H          -2.76854600304838   -2.31790869354299    0.06286223388285
H          -3.39153386560940   -9.12710374004791    0.01554736814677
H           3.57205559294125   -9.08111800846737    0.07390980950001
H           5.41859225719276  -10.94791289907704    0.07521223282407
H           4.34899590904063  -13.33662916353948    0.05794276300419
