27
         -49.842158183245          0.000174390990
N           1.02737631890869   -0.29134620895240   -1.06395950865328
C           2.37440284448133   -0.14147095847649   -0.88794334972264
S           3.10581473845538    1.42764968791228   -0.93941938913315
C           4.67932600226390    0.73623461162970   -0.54795111954424
C           4.57936127051870   -0.63452069093751   -0.39987746060166
C           3.28936409686439   -1.12737562824300   -0.58803483686106
N           5.69160094344994    1.60056892342526   -0.42733188325197
N           6.86583787536524    1.11896913193661   -0.18879257212620
C           7.85091749775177    2.04096490579945   -0.03596777071725
C           9.16624004175169    1.68167555782123    0.20101278308627
C           7.81512561307925    3.48718307461306   -0.05263880821103
C           6.80679921386868    4.42824282715623   -0.23673639801491
C           7.13884764985373    5.76622000122765   -0.18214416836046
C           8.44949668494219    6.18640633589451    0.05179302116761
C           9.47172710341086    5.27851310318645    0.23778098347428
C           9.13743436702650    3.93405789462899    0.18182560100531
N           9.89658250749592    2.81109061743697    0.32270533819441
F          11.24874321780926    2.81400935562662    0.56372405356717
H           0.53769051646383    0.47430839403630   -1.49652836850165
H           0.70578476440161   -1.21148892603045   -1.31819513439987
H           5.43851533242827   -1.23295726680572   -0.15641815189968
H           3.02076098304470   -2.16585971692872   -0.50767481922718
H           9.60803266273899    0.70977766642238    0.28496922507711
H           5.79558553779669    4.10145809405297   -0.41700710765793
H           6.36970140926251    6.51096312366491   -0.32278935130477
H           8.66730100913937    7.24321321852414    0.08841624903544
H          10.48759979742690    5.59405287137921    0.42005294358098
