29
         -60.518168681786          0.000452863304
C          -1.25389261156167    0.08757869878378    0.02647177625708
N          -0.54487445186466    1.22977470232399    0.09561408722739
C           0.71224618386746    0.87509160777640    0.15610928178231
N           0.85808242779880   -0.46653152590410    0.13075564247344
H           1.71438110976129   -0.99618970130900    0.16393144675522
C          -0.40222214942221   -1.00839893694632    0.04576888231242
C          -0.66788426223355   -2.40356335191879   -0.00378436846040
S           0.60440332785588   -3.57891815434353    0.08060317481896
C          -0.54938218668500   -4.88679105958026   -0.04929450594316
C          -1.84649252332298   -4.39341275088070   -0.14792155543015
C          -1.91021865357756   -3.01109989400423   -0.11909321601671
N          -0.06000891679380   -6.12741082060896   -0.00610641006031
N          -0.89889214048040   -7.09532407235397   -0.16977703759617
C          -0.37197252834169   -8.33121706678488   -0.02937391721753
N          -1.10847804693603   -9.39942109745864   -0.30314210133775
C           0.92496522973639   -8.75164527877867    0.44835042822184
C           2.12554386029454   -8.21982132040173    0.90728651109216
N           3.10711861314508   -9.02322025115369    1.26981437608743
C           2.92488877292938  -10.33822910680422    1.19619410009055
N           1.84765840522987  -10.98143368327326    0.79251537173270
C           0.86604317285453  -10.17174041164360    0.42323533923976
N          -0.37003187856413  -10.45358417865557   -0.03571348363509
F          -0.89454863770709  -11.68806972277582   -0.24665310615621
H          -2.32291859494615    0.10312311486881   -0.03037293733780
H           1.53512950696781    1.55840425250633    0.21826362656624
H          -2.68710645847017   -5.05803254246108   -0.23169216890610
H          -2.82215710654196   -2.44615920469828   -0.18202277612460
H           2.29942379113391   -7.15538104605172    0.98247364409108
H           3.75778674587414  -10.95361719746789    1.50689989547363
