32
         -59.047610581834          0.000511596909
C           1.06081854676050   -0.35920479385864   -1.10216192653480
C           2.52252787523151   -0.15751747659809   -0.93824892948702
S           3.18345299523322    1.42545347244978   -0.76506939431201
C           4.80163811984670    0.77138320847418   -0.61912444075044
C           4.78242394946740   -0.61145633608043   -0.70476666873353
C           3.49863876370040   -1.12315434345455   -0.88399079402761
N           5.79416955089042    1.65582638132256   -0.46105821245095
N           6.99139213325199    1.18553683996470   -0.35639217955159
C           7.94805178933318    2.12985472924787   -0.21412161337496
N           9.21652809724475    1.77523254241328   -0.08847006987564
C           7.84444964793016    3.57006468969086   -0.17874010231884
C           6.88923345577530    4.57656520477488   -0.24631354322630
N           7.25912807948177    5.84170643307786   -0.16052948782478
C           8.54883836396936    6.12111524141916   -0.01233961762169
N           9.55736735816282    5.27408383203776    0.06357854103464
C           9.18338174729777    4.00304653886828   -0.02044264597904
N           9.95873546731624    2.87945272907990    0.02666088691971
C          11.32503879962108    2.80415640914368    0.17507793294160
C          12.21454418940474    3.83645748866002    0.27689908034649
C          13.53637998711658    3.36963527099667    0.42082640156233
C          13.62146032687193    2.01328706505204    0.42499830263272
S          12.08715206278687    1.25223324732486    0.25333948759138
H           0.64960882462181    0.36114907326454   -1.80666049759143
H           0.54950883556055   -0.21870482120208   -0.14888637262020
H           0.85717163329724   -1.36640125369886   -1.45797017780397
H           5.68473520007253   -1.19151422547927   -0.63758829896422
H           3.28111213807226   -2.17296391213767   -0.97631181155527
H           5.83429674938266    4.37307782189858   -0.36642904051747
H           8.80454506132820    7.17029863486336    0.05167025903149
H          11.91935671106026    4.86853665026507    0.24886209702434
H          14.38667400424837    4.02009453563312    0.51668465518091
H          14.49864953566020    1.40522912258313    0.51977818085612
