39
         -68.384387191792          0.000572926477
C          -1.61075403332505   -0.01705909170263   -1.36621019517208
N          -0.95768568630309    1.09829343016207   -1.75572686628213
C           0.25704818910488    0.72139991848691   -2.05240610935474
N           0.42971788769482   -0.60668306370879   -1.87126863565471
H           1.26323715195288   -1.15075310461646   -2.02496746864631
C          -0.76712015323537   -1.11326374115242   -1.42596187384440
C          -0.97816679938475   -2.48913265500209   -1.12508053509823
S           0.29889595609970   -3.65768031871710   -1.30096689383243
C          -0.76251313511496   -4.94974362073578   -0.79013073998747
C          -2.02444481415715   -4.45974168611866   -0.49585493842950
C          -2.14081751793460   -3.08647391823601   -0.68008857093049
N          -0.21327581058150   -6.16836160291412   -0.69698290600796
N          -1.00654241957469   -7.15983217969660   -0.46358936363338
C          -0.41097582078710   -8.36146940880190   -0.29383180212006
C          -1.13051141491732   -9.52968206074310   -0.13348498535124
C           0.98615159036969   -8.73385188214197   -0.21494057699116
C           2.17060543379493   -8.01012870829302   -0.27336726074035
C           3.36118879156158   -8.69016794618577   -0.11363219600844
C           3.38142359880217  -10.06366102845771    0.11953088023404
C           2.21504669321820  -10.80259701351997    0.17933166081437
C           1.01806368309465  -10.12911496260144   -0.00896772936165
N          -0.29199007893728  -10.59162088068518    0.01567674217856
C          -0.70495770920841  -11.89924692202542    0.17042139651732
C          -0.10662213514632  -13.04316613154026   -0.27482290087202
C          -0.82903723041634  -14.20306279328996    0.07830139543807
C          -1.96203380306725  -13.93205002452633    0.77187795324232
S          -2.17982543149981  -12.24577609271446    1.03254491812421
H          -2.63776062212095    0.02097046731488   -1.06606282285387
H           1.03205161675892    1.37514457676137   -2.39873005521942
H          -2.80917588099746   -5.10851433779671   -0.15139962522556
H          -3.04264553362922   -2.52879935978446   -0.50277751697070
H          -2.19523702428890   -9.66197838832496   -0.13926424455162
H           2.14299347852408   -6.94477066246950   -0.43506970039417
H           4.29548232735621   -8.15052082130619   -0.15674164980639
H           4.32845733061817  -10.56250554012576    0.26232385477413
H           2.24372584602889  -11.86019376182420    0.38871561030705
H           0.79182648835406  -13.05704624419358   -0.86318755493605
H          -0.51746824958372  -15.19694298576676   -0.18753720667448
H          -2.69507475912070  -14.61609545300673    1.14902851331872
