39
         -69.212278842435          0.000249737856
C          -1.66720506124867   -0.06442680208004   -1.42057502976028
N          -1.00266539186773    1.07036533381512   -1.72493376377053
C           0.24429266720663    0.72362986471549   -1.89918480728575
N           0.42706269722051   -0.60324738680183   -1.71928256229456
H           1.28422074735704   -1.12678119423195   -1.79328883745156
C          -0.79774607935697   -1.14177737913237   -1.40792573827261
C          -1.00911840167636   -2.52622854367468   -1.14910654489208
S           0.30539613260969   -3.66421222824547   -1.18555076464950
C          -0.77667270961765   -4.98356937539847   -0.80549900631565
C          -2.07572792830169   -4.52496412365423   -0.65947871435008
C          -2.20243603046050   -3.15366613100108   -0.84987349580050
N          -0.21629082210160   -6.19533230249830   -0.68422435589235
N          -1.01193231443781   -7.19108139030052   -0.47141132480515
C          -0.41692321168032   -8.39543430823270   -0.31641784429715
C          -1.14017851818175   -9.55422045370616   -0.11505539607501
C           0.97837855994643   -8.78250790638072   -0.30684705696343
C           2.16292032698733   -8.07215596120140   -0.45352986179851
C           3.35417505932426   -8.76667300140445   -0.38663065784507
C           3.37368257651112  -10.14343249439253   -0.17659307894003
C           2.20681038902436  -10.86967265689937   -0.02834418400002
C           1.00734791083452  -10.17734450089805   -0.09640523036639
N          -0.30561193384914  -10.62485858890137    0.01579610945935
C          -0.74094367170476  -11.91672728289576    0.21932988984845
C          -2.01174434997649  -12.41145813023121    0.36308112663743
C          -1.86162393473817  -13.80722665968444    0.54119812513876
C          -0.52769619458007  -14.05686287696391    0.49387478763968
O           0.16198581167804  -12.91261048234949    0.29807097581750
H          -2.72007465838722   -0.05238026992301   -1.22718298944580
H           1.03614132701587    1.39873858946915   -2.15424272234629
H          -2.88050613724042   -5.19512387670995   -0.41784201680624
H          -3.13194912377325   -2.61849028670230   -0.77801154192683
H          -2.20448454392582   -9.66336911648422   -0.06417441661842
H           2.13513744181762   -7.00684931171393   -0.61529168555705
H           4.28896454502127   -8.23754737065536   -0.49799537727142
H           4.32199478010741  -10.65772775682764   -0.12757090265134
H           2.23708301178855  -11.93413320183531    0.13431266444771
H          -2.93069904699151  -11.86501063862431    0.34686845544870
H          -2.64650884454568  -14.52039044178887    0.68457179332662
H           0.04363492419575  -14.95845935557614    0.58060598068773
