29
         -49.108095918707          0.000576218326
N           1.11562364815748   -0.37387958547166   -1.12868445873065
C           2.46517677268942   -0.19958021462235   -1.00675258952535
S           3.15267032068996    1.38821058562280   -0.95362738880267
C           4.76095231040932    0.71172627703729   -0.70168036357148
C           4.70356391192633   -0.66976888443038   -0.67245926539866
C           3.41925689274027   -1.18140196135979   -0.84233185865070
N           5.75778719225807    1.58986270976293   -0.56511956630963
N           6.95069485753731    1.11931650807676   -0.40617972490490
C           7.91096738094317    2.06090628550237   -0.25123637072423
N           9.17433976999486    1.68208450566294   -0.09621677018194
C           7.82736401666823    3.50145296486490   -0.20851526550777
C           6.81384035404876    4.44977301723735   -0.30768788146221
C           7.16588826623615    5.77810468921205   -0.20954867367494
C           8.49465977472585    6.17339030634351   -0.01600161939497
C           9.51533188376935    5.25448855019526    0.08595482654953
C           9.16517997846993    3.91130569510659   -0.01295594783781
N           9.91683514634837    2.77400960014099    0.04375800433809
C          11.33270046164020    2.67371770998998    0.23299499775821
H           0.58256087321713    0.41132119680409   -1.46389642782202
H           0.80329446801967   -1.27765670104850   -1.44552244845154
H           5.59123097691361   -1.25823292347421   -0.52733701600179
H           3.18091852470398   -2.23016412496599   -0.84423332884891
H           5.79226194156790    4.13952745492550   -0.45684782811977
H           6.40316342984003    6.53935274260117   -0.28256768155085
H           8.72144854831692    7.22728169407126    0.05517158240053
H          10.53947024277699    5.56089370373892    0.23630215647055
H          11.86332816714790    3.21999613473013   -0.54992813499588
H          11.59817276323960    1.61976841920171    0.18603995458446
H          11.62083712500278    3.07872364454419    1.20612908836761
