22
         -43.040766108062          0.000845127909
H           0.92920235171741   -0.05657813538027    0.09368399287245
C           2.00091890584436   -0.01410540011349    0.09205275474129
S           2.78559925296318    1.50209860122268    0.08647269519539
C           4.34819878839122    0.71748240609613    0.08665622185808
C           4.20842952179090   -0.66251350377594    0.09091435698460
C           2.87470765223814   -1.06938105702047    0.09394754208341
N           5.42615056656836    1.51672451324027    0.08305294870758
N           6.57325568071389    0.93934372071057    0.08316759424053
C           7.66229745516945    1.74731581411652    0.08032656368053
N           7.69430668967026    3.07412969455814    0.07907094293607
C           9.00457193999791    1.23324474651034    0.07902091221333
C           9.69141657210778    0.02531312144770    0.07928651999193
N          11.01102765002736    0.01810872108659    0.07773053937985
C          11.65878033675266    1.17955959084594    0.07584520677614
N          11.14416567501317    2.39321791550474    0.07525679217633
C           9.81631116352566    2.39805808412906    0.07687646335971
N           8.97164721917609    3.45501076452703    0.07700880916451
H           9.20655574266909    4.43590055342768    0.07594041519814
H           5.06125551407451   -1.31650455291865    0.09164429653138
H           2.55857841467925   -2.09735338952450    0.09742617775248
H           9.19239252848200   -0.93409785844926    0.08074817282288
H          12.73867037842736    1.12016564975917    0.07470008133338
