31
         -55.327051127052          0.000278846484
C           0.92263956958789   -0.49904512813449   -0.04838431994767
C           0.86007438512129    0.90415105461596   -0.06584648070988
C          -0.41651070991814    1.37397608484580   -0.04051680563594
S          -1.57626251928494    0.10925139370506    0.00574096973697
C          -0.31516054637881   -1.09421707986491   -0.00932320405342
C          -0.62368752196560   -2.48303593564509    0.01527038167403
S           0.63022904957574   -3.68028173757525   -0.00279003907358
C          -0.55304973887226   -4.96762050330931    0.03929779587524
C          -1.84348768093336   -4.45311947546811    0.06593794611605
C          -1.87913682562543   -3.06704985092252    0.05237124005053
N          -0.06892347424046   -6.21480611642396    0.03255346041244
N          -0.92300524175953   -7.17941522125378    0.06759241031017
C          -0.41227333570217   -8.43251611906098    0.04796189807383
N           0.87073839600740   -8.78033758340129   -0.01647860452026
C          -1.23445650944130   -9.61276718010648    0.08938079973525
C          -2.59940307996242   -9.87427994588938    0.15737187556698
C          -3.00045807984548  -11.19155635985221    0.17684846187433
C          -2.07513222440056  -12.24184209288134    0.13027741764387
C          -0.71951941109569  -12.00993100868301    0.06315330403577
C          -0.31057480578303  -10.68066836845544    0.04332692551277
N           0.92378641175490  -10.10586161143898   -0.01867659376019
H           1.81963888979574  -10.56607398038219   -0.06499026245487
H           1.83560534847985   -1.06663766239768   -0.06367529820965
H           1.72638417630486    1.54024414765792   -0.09655478055584
H          -0.75189953368711    2.39193391019275   -0.04647480943581
H          -2.70390526464300   -5.09684188279687    0.09293251474263
H          -2.78219237673546   -2.48143237469269    0.06815967670381
H          -3.30817628326282   -9.06260098329732    0.19291549868090
H          -4.05240624874657  -11.42986970587597    0.22881424968310
H          -2.43831395039346  -13.25870446187315    0.14779713098426
H          -0.00521086395046  -12.81824422133522    0.02740724094418
