23
         -44.654602741439          0.000395576244
C           1.21670400002409   -0.10987439801617    0.43087659812546
O           2.56306052952255   -0.03439637240891    0.01484016418079
C           3.08794272337127    1.17741231938332   -0.14475244597214
S           2.20751993063683    2.64061484660466    0.13411002150710
C           3.61897763351172    3.59370574013726   -0.30180328581587
C           4.68304406128426    2.76974727339433   -0.63574376009275
C           4.38744522394538    1.41521046765198   -0.54841470117232
N           3.47154139795497    4.91840198751773   -0.25208875450796
N           4.48488601927673    5.64927904174183   -0.56389015299251
C           4.24455821722149    6.98733893932746   -0.48536784224829
C           3.04630782372862    7.68713379623530   -0.10957478887677
C           3.36641986584583    9.00094612440833   -0.20553247225551
N           5.20876459114916    7.84074321701665   -0.78354419342644
N           4.68109319442916    9.05985391537560   -0.61543327451969
C           5.36501876822994   10.17723335521463   -0.82551128271463
N           5.92125582293975   11.16296792827441   -0.99630361125045
H           0.97971360214618   -1.16899938265688    0.50170267592061
H           0.55695178513918    0.37404733600940   -0.29558857257569
H           1.08254148347796    0.37012683067655    1.40492991417543
H           5.63210199524972    3.17997419259840   -0.92986488870559
H           5.07439603801045    0.61855978095949   -0.76503763875670
H           2.11908793570325    7.23887845416318    0.17837718309767
H           2.80589735720144    9.89718460639145   -0.02806489112373
