24
         -43.540630798607          0.000633656632
C           1.55476531605762   -0.62261450079204    1.04518958742415
O           2.44454532853139    0.01759529551588    0.15521340405347
C           3.02713065648315   -0.75247749894829   -0.78034691412046
S           4.09969730153211    0.03636140901806   -1.88293270872562
C           4.40793660509652   -1.49277933292582   -2.69675461593678
C           3.69505530566753   -2.51507259256232   -2.10457607720963
C           2.91376754983782   -2.09964702392836   -1.02252804836133
N           5.24412317242551   -1.46614396299571   -3.74824759495413
N           5.48264419599541   -2.59028833866378   -4.32696475988222
C           6.30898179655604   -2.51747923677813   -5.40252161569544
C           6.89853311115998   -1.39743885937436   -6.05148023899709
C           7.60475198042324   -1.93189921583407   -7.09472391415390
N           6.66551101606807   -3.64645865528537   -6.02749837311068
N           7.43094378569999   -3.27330783660406   -7.02740541881670
N           7.93704129879903   -4.19866563808217   -7.92072223629065
H           1.18551943262567    0.15841117250674    1.70669256279707
H           2.06777666381921   -1.39007264163752    1.63220945366632
H           0.71702200255755   -1.07572323448180    0.50702561584462
H           3.75610085093242   -3.52441622704260   -2.46847896383144
H           2.29564938094895   -2.76573743252925   -0.44842280738385
H           6.78849374377634   -0.37191545777199   -5.76939280966913
H           8.20557096154457   -1.48886378219607   -7.86223921078056
H           7.45490812923055   -5.07938824140698   -7.75629589892618
H           8.93804041423122   -4.33535816720023   -7.78295841694001
