29
         -55.875783561429          0.000753787343
H           1.11788315417651   -0.41249760568734   -0.76907569971899
C           2.17879578356076   -0.31875724358794   -0.64277697021299
S           2.89599921889729    1.23137807548685   -0.67614484420246
C           4.47732031825678    0.52714698478518   -0.42788213298492
C           4.39594459655117   -0.85280269679854   -0.32608335189044
C           3.08823472957701   -1.32399602356263   -0.44850953261621
N           5.51607186188892    1.37587448460390   -0.36998834078791
N           6.68571392611097    0.85449276986989   -0.22593909287877
C           7.69503821949509    1.75016093510882   -0.15502875972142
N           8.94779563732371    1.32964972679993   -0.07798300645752
C           7.66942096209038    3.19377762589963   -0.13515895804825
C           6.76697781754577    4.24993288620136   -0.17503146027010
N           7.20845229814948    5.49385241734424   -0.13266992281643
C           8.51658790128948    5.70554548925670   -0.04743969697547
N           9.48001912047077    4.80567555139648    0.00549430385692
C           9.03486253852462    3.55611490584934   -0.04097048748259
N           9.75106406908743    2.39220054398645   -0.01177373696570
C          11.11800192206770    2.24714737909469    0.05838103837048
C          12.06211269363597    3.23281105904638    0.12896843157056
C          13.36538184749569    2.69968545529104    0.18016272598773
C          13.38322026581588    1.34092444813908    0.14801011658314
S          11.80626656494133    0.65875186478093    0.05370594543246
H           5.26980732314499   -1.45872746385734   -0.16870325771436
H           2.81589304594358   -2.36361834428724   -0.39882038491712
H           5.69809021035912    4.10288690067281   -0.24215449146219
H           8.83118566968916    6.73994886485254   -0.01569566359943
H          11.81734651659522    4.27834062733427    0.14176742135535
H          14.25104208190612    3.30596447894918    0.23779488588728
H          14.23345970540847    0.68922590303243    0.17326492267961
