31
         -48.584214153764          0.000347733526
C           0.98559244211475   -0.52704444432836   -1.14459741417486
C           2.44394175260696   -0.33861439900337   -0.92858368817149
S           3.11695955026676    1.24883077325978   -0.78037204127726
C           4.72379954726870    0.58835185441653   -0.56649297706833
C           4.69535311874911   -0.78993654081821   -0.61525067927192
C           3.40891964788926   -1.30202891316087   -0.81988866078118
N           5.72161413807850    1.47897545749966   -0.40788924845770
N           6.90428967277776    0.99916050014988   -0.22362438823389
C           7.89560189094095    1.91002066676434   -0.08573784340347
C           9.21548093903375    1.54233650618090    0.12272057109314
C           7.88418038301198    3.35471710044027   -0.11750023824872
C           6.88880400670195    4.30995905841218   -0.29004084440589
C           7.25038904973496    5.64147709859318   -0.26385645467260
C           8.57564432519120    6.03196554541517   -0.06996226445481
C           9.58091076267646    5.10152878777695    0.10351525113402
C           9.22274254562137    3.76108554232847    0.07745978271645
N          10.00385660976387    2.63590720516300    0.21976029511518
C          11.42183329285463    2.64124055605787    0.43277228598764
H           0.66265938007669   -0.01641561399972   -2.05135743060948
H           0.41760389288885   -0.11258774381678   -0.31193859556820
H           0.75521271740616   -1.58595715888442   -1.23498175853216
H           5.58731304416933   -1.37960780313455   -0.50656908511690
H           3.19085077721188   -2.35411072401380   -0.88671604135508
H           9.61892886717152    0.55131381422237    0.20493427434523
H           5.86638489800843    4.00251367638160   -0.43908350255943
H           6.49523048172512    6.40229095340452   -0.39569824961632
H           8.81958976977856    7.08413025232775   -0.05538940298544
H          10.60516511344134    5.40915556329117    0.25341688708360
H          11.66700167482538    3.15545855166518    1.36518664510215
H          11.92874612118763    3.15277671974164   -0.38886119258952
H          11.78417958682621    1.61663715766734    0.48832600897750
