24
         -52.076848484561          0.000917819567
N           1.44852978101136   -0.74247400987514   -1.59538688378759
C           2.55338191684077   -0.54205059616440   -1.36020338584896
C           3.90140636224887   -0.32005912326466   -1.06450863481791
S           4.64277953148156    1.21267116500550   -1.34681635993334
C           6.16000754573832    0.59969745541860   -0.74446661953327
C           6.05753422579258   -0.73012751970923   -0.34997463548053
C           4.78327118025546   -1.24609669391762   -0.53017475997406
N           7.18587835883219    1.46593917024973   -0.71215085679687
N           8.32366072375263    1.00718471360111   -0.33598823481548
C           9.30696225707553    1.92968154024821   -0.21639980958671
N          10.55409850836376    1.54008279123778   -0.05139945659587
C           9.22480622954932    3.37451815867391   -0.16038433805881
C           8.28846740521432    4.39985834929442   -0.23711567047731
N           8.68230672431262    5.65442825514855   -0.12732074468230
C           9.96939277728576    5.91132637644105    0.06667882210010
N          10.95602615248386    5.03920761644165    0.17175183635933
C          10.55882279169977    3.78531814683954    0.05212950844376
N          11.31942745384795    2.63746144969320    0.10540072792897
C          12.63638903702393    2.56988319247485    0.28297714956553
N          13.76885034693177    2.52850283994777    0.43189491138757
H           6.89853218601253   -1.26675639865986    0.05009204669556
H           4.48912491808663   -2.25227010243042   -0.28942694885262
H           7.23336345334078    4.21998161663763   -0.38919300500601
H          10.24401013282083    6.95313160666774    0.15388534176621
