32
         -63.814131615878          0.000579068422
C          -0.55833600874522    1.36913086783211   -0.04887458128122
C           0.76690033931152    1.38018742877243   -0.14820873722083
S           1.81688012486928   -0.01578157044622    0.04249880305370
C           0.56120232491299   -1.24630383572071    0.06636364976561
C          -0.74381666933592   -1.01275662382918    0.14648698057369
N          -1.34476620897377    0.24584310542283    0.21799836964488
C          -2.67876962749656    0.36303413558454    0.46110823222162
S          -3.68513264462539   -1.04578820626770    0.63813901256002
C          -5.10442005554618   -0.04078573345749    0.89783932603819
C          -4.76056528486038    1.30691018642648    0.84605099291573
C          -3.41866321248846    1.53423050843129    0.61092751283048
N          -6.24775917916982   -0.67176944791862    1.12268248916754
N          -7.31847107079680    0.04737781552947    1.24671062061679
C          -8.42315171638350   -0.63259396527046    1.61580177634832
N          -9.61427006356820   -0.07950259340872    1.52011243816118
C          -8.52908825460021   -1.93895459530209    2.24013090517956
C          -7.72723866605006   -2.99913018735299    2.63661782520047
N          -8.27389064630269   -4.06316538084111    3.20112447488302
C          -9.58643829730619   -4.08324271565193    3.38614512852298
N         -10.46175012600535   -3.14541410756848    3.06936515886173
C          -9.90976157464361   -2.08950709703228    2.49608160370673
N         -10.52211292015408   -0.94660354173417    2.04156581254772
C         -11.82089383367633   -0.67749020734818    2.07521513265176
N         -12.94318849703569   -0.45848059182991    2.11112615324200
H          -1.10678059585320    2.28313137532283   -0.20892199111672
H           1.29858606273978    2.28683095341502   -0.37685089861143
H           0.94395972896394   -2.24927990866005    0.00038148707547
H          -1.43803365940359   -1.83975632906315    0.14772132852980
H          -5.50300183201160    2.07108787642460    0.98837389479838
H          -2.99873925658293    2.52231677290293    0.56797584752994
H          -6.65455373525434   -3.00425560731764    2.50193034051318
H          -9.99109494393120   -4.96965878004100    3.85464091108734
