26
         -50.101368284276          0.000299388638
N           1.21379863022336   -0.40783218393766   -1.11678079047726
C           2.54885753747399   -0.24446137128449   -0.90491109808618
S           3.28198374443423    1.31867077266224   -1.02269022798630
C           4.84264283691424    0.64989964359973   -0.54759542279035
C           4.73658038065904   -0.71361378287816   -0.32433992243061
C           3.45499100225397   -1.21450548291957   -0.52090942380849
N           5.85297909910282    1.51284455696125   -0.44703759885120
N           7.01879099636634    1.03753970763531   -0.15337086477263
C           7.98695812585069    1.97139068949926   -0.00835421463490
N           9.23742927275514    1.58105039315424    0.21836752591107
C           7.92067099162994    3.41532025069223   -0.01821597387808
C           6.92373484138437    4.37198315390606   -0.19206126555099
C           7.28614023785100    5.69924787709478   -0.12096721186500
C           8.60855035071453    6.09214813768065    0.12030579180060
C           9.61696521416134    5.17154623773540    0.29879910882177
C           9.25099114369390    3.83290804077059    0.22484041195133
N           9.94323702947166    2.67573276181537    0.34694122638812
F          11.28603756946474    2.58130908214614    0.58086514566744
H           0.72247773274933    0.33348308402389   -1.58678925358643
H           0.88520355126059   -1.34302557090666   -1.29240851922017
H           5.59084085367526   -1.29243837683513   -0.02342247852639
H           3.18034348052735   -2.24601544651926   -0.38976340534990
H           5.90706143495178    4.06582316841118   -0.37717192728777
H           6.53487227682019    6.46324858174155   -0.25368975094775
H           8.84057149213844    7.14549357881523    0.16843129121718
H          10.63744017347153    5.46511249693601    0.48782884829289
