28
         -49.366278551129          0.000777913132
C           0.84075526110310   -0.42518418967180   -0.02912784531072
C           0.60558843684920    0.92409897584727   -0.03199533647254
C          -0.79732028490127    1.03980391135081   -0.00269304069014
N          -1.37094459808092   -0.14133730960615    0.01694643493499
N          -0.37401199712949   -1.03342131381201    0.00070755420136
C          -0.63688618884608   -2.38217671869671    0.01401450068216
S           0.63948704570827   -3.54871372548343   -0.00584291867388
C          -0.53332883022092   -4.85056758562889    0.02536448975140
C          -1.82467283044057   -4.35534518039461    0.04936278564100
C          -1.88386633041977   -2.96345189269159    0.04303762483270
N          -0.03150482623160   -6.09659052845503    0.02132766606745
N          -0.87366391709713   -7.06812806718609    0.04231012795297
C          -0.31200540232596   -8.30485092104889    0.03693569463258
C           1.05619126394512   -8.70354511818995    0.01368887751433
C           1.00953084958816  -10.06886532969354    0.01974070384312
N          -1.10118204768631   -9.38290599403637    0.05536145846490
N          -0.29964245446570  -10.42547691103870    0.04474926214684
C          -0.83127969429079  -11.75636904241218    0.05924840199203
H           1.74870785645183   -0.99280767073842   -0.04535157516173
H           1.32556955395813    1.71537561852647   -0.05217607650716
H          -1.39354403113034    1.93006530364030    0.00486699074250
H          -2.67441828484160   -5.01287492922386    0.07037628786122
H          -2.78458570983026   -2.37835537174706    0.05833019486682
H           1.90808732896309   -8.05751185394002   -0.00415820595266
H           1.78801226608732  -10.80577806358821    0.00846475847854
H          -1.91623360401804  -11.67900453445705    0.07667532707722
H          -0.48996974230686  -12.29642515924408    0.94463085749417
H          -0.51893908839074  -12.30411639838043   -0.83202500040940
