22
         -51.424659166967          0.000796342429
F           1.13044951951650   -0.49632607262423   -1.01533623058026
C           2.42011768858347   -0.30454431904156   -0.77105057196096
S           3.08773602526742    1.27608846443121   -0.86837762230468
C           4.65687414046057    0.61777450871371   -0.44226517078468
C           4.59729665375793   -0.75226652708802   -0.24453672826893
C           3.31925532403934   -1.27948588068290   -0.43063370991289
N           5.66511452921931    1.49719593671859   -0.34719758265824
N           6.83289544123787    1.02971433180735   -0.08075136394222
C           7.79874407442014    1.97086445687687    0.04235578163953
N           9.05450903020362    1.60330393735035    0.25667447594391
C           7.71891433876709    3.41139647479227    0.00562023722140
C           6.78774534975946    4.43464649318244   -0.15436991704277
N           7.17922564888826    5.69242900030420   -0.10776526429944
C           8.46492670614242    5.96369085206206    0.09636550714935
N           9.45088043139703    5.10599788078868    0.26881781165344
C           9.05568564252603    3.84296461518303    0.21899765534218
N           9.76496334601300    2.70144685139272    0.35417528332499
F          11.09956593607794    2.59832677920034    0.57112876144776
H           5.46916834099047   -1.31848384507957    0.02831877594980
H           3.05393738521407   -2.31537298110126   -0.32531212084430
H           5.73670948232327    4.24395735123723   -0.32031557498278
H           8.73305496519496    7.01053169157706    0.12818756790981
