21
         -40.236558392227          0.000606202638
C           0.84474760048436   -0.06923591809435   -0.05783048470671
C           2.32530748317578    0.06279439447597   -0.04889738059950
S           3.07940294530235    1.61103831574819   -0.03565932024651
C           4.66774578108108    0.87862257003633   -0.03171622114989
C           4.57141564144746   -0.50255134110836   -0.04011633108802
C           3.25190426323757   -0.95212345513528   -0.04974061533952
N           5.71634016219441    1.71711529699242   -0.02252289150751
N           6.88832396620333    1.19157061050796   -0.02141792113985
C           7.90921232932975    2.09283073343123   -0.01367126936122
C           7.89142600880751    3.51705058835143   -0.00920172067390
C           9.21097658936842    3.88596662953533   -0.00345424091644
N           9.16986657222159    1.64663425002159   -0.01081763558502
N           9.88988542287248    2.72388160335516   -0.00475256756932
F          11.24663839130344    2.62930392014818   -0.00055823445333
H           0.37393227130088    0.90978241248711   -0.06091973766173
H           0.50760885155047   -0.61891343137256    0.82090412403351
H           0.51843181023908   -0.61959293695812   -0.94015266063577
H           5.44522087733842   -1.12834512376387   -0.03909704352285
H           2.97331562687333   -1.99151461991106   -0.05735772939858
H           7.02404746469007    4.14235795538855   -0.01028541414413
H           9.70620994097821    4.83448754586413    0.00120529566626
