38
         -73.465826210760          0.000500288121
C          -1.15427689178309    0.08613842504913    0.14529399789613
N          -0.41594194833150    1.21401642212126    0.16961888806696
C           0.83311061378995    0.82980105461752    0.17361711427210
N           0.94539434643330   -0.51586802165854    0.15259298721351
H           1.78785752630398   -1.06796553783073    0.15059941241518
C          -0.32949891503168   -1.02779852481494    0.13383709246509
C          -0.62303400459350   -2.42006993581792    0.10978595166481
S           0.63626360580175   -3.61466496942280    0.10250786979539
C          -0.54079224294688   -4.90768103037830    0.07450850364066
C          -1.83273942613448   -4.39513800942646    0.07111730086527
C          -1.87637823539307   -3.00948532144123    0.09100142425998
N          -0.05234791277102   -6.14958358559288    0.06610592988764
N          -0.90734403884442   -7.11745728943671    0.04503952915175
C          -0.39369477906829   -8.36649108440208    0.04248817638973
N           0.88915901095661   -8.70887895877578    0.05200616951440
C          -1.21093157180754   -9.54754553062984    0.03062011530022
C          -2.55064263683266   -9.92212731477071    0.01596135477050
N          -2.88649056174075  -11.19169440763767    0.01002599809526
C          -1.90993055484725  -12.12120346182676    0.01892194388787
N          -2.31381609196629  -13.40328266793794    0.02749945334282
H          -1.62533897001754  -14.13163212500640   -0.00590238585163
H          -3.29470994434187  -13.60489778144443   -0.02164293096665
N          -0.59465576378505  -11.89872037738178    0.02865442525268
C          -0.28145028090976  -10.61451426174367    0.03541708375684
N           0.96294998078047  -10.04736355094994    0.04727403666013
C           2.19189882821095  -10.66789785031822    0.05611368370674
C           3.44388320060727  -10.11291993052857    0.06899572514610
C           4.33470557423151  -11.21083302761728    0.07423536557957
C           3.56074753553458  -12.33046688447543    0.06419064482050
O           2.25233492913074  -12.00759671622927    0.05299663220038
H          -2.22413327772724    0.12661513316876    0.13734019017600
H           1.67471631512654    1.49265463324710    0.19133748514819
H          -2.68907579587434   -5.04459336182322    0.05530283341155
H          -2.78366820094188   -2.43314324089841    0.09230110511773
H          -3.35839532818989   -9.20331107725701    0.00781680922247
H           3.67030568892411   -9.06829547269444    0.07387224128153
H           5.40409815748808  -11.16744556189382    0.08420939469328
H           3.80340206055995  -13.37382879614055    0.06383844774916
