35
         -58.721702105849          0.000387234241
C           1.06746230753612   -0.36147863792916   -1.16686135834247
C           2.53206957942099   -0.16586738457936   -1.01080022620735
S           3.19472807509590    1.41789980003587   -0.80656131874743
C           4.81702938272645    0.76683040043577   -0.70927950139306
C           4.79948931775384   -0.60844565728743   -0.83017022785027
C           3.51055401874465   -1.12347926214544   -1.00002955928233
N           5.81017622128900    1.65888328372439   -0.54646947803191
N           7.00994851131550    1.19201349143892   -0.47603260373145
C           7.99006111485193    2.11360858717684   -0.31688452277428
C           9.32306500476243    1.76109586398172   -0.24104652761329
C           7.94514213168311    3.55380755468053   -0.18733278869756
C           6.91008902159152    4.48167810219552   -0.17306528867419
C           7.22991293752094    5.81298292968543   -0.00175014661676
C           8.55165195313626    6.22497359045597    0.16534873278683
C           9.59583369396274    5.32089460433603    0.15099886793323
C           9.28046087622179    3.98430964036011   -0.04014355045083
N          10.10229502799256    2.86834727917101   -0.08254682761927
C          11.48004053146188    2.85535717847264    0.02623029367535
C          12.45750997436298    3.72561778334868   -0.39096193820635
N          13.67767653724385    3.24609488551319   -0.04284689435020
C          13.46809440450194    2.11703487265468    0.56696285487231
N          12.14481795736397    1.82207900757666    0.64083462362973
H          11.71647024056918    1.01856034851819    1.07052665591423
H           0.68133550972108    0.26051050186804   -1.97328231041172
H           0.54336581155051   -0.08061869935356   -0.25315369489764
H           0.85050139415616   -1.40384255747353   -1.38803575746430
H           5.70123426971483   -1.19228133238456   -0.79618609488205
H           3.29875044343585   -2.17270976620775   -1.11396950948455
H           9.74825522064347    0.77937175919968   -0.32516395091244
H           5.89040497517338    4.15240754998947   -0.29032637615410
H           6.44394435643820    6.55334054537861    0.01204261993537
H           8.76390185356723    7.27353224793168    0.31193652080114
H          10.61483480912309    5.64282990589857    0.29589011425882
H          12.35950984111405    4.64334348287602   -0.93237069767343
H          14.23238269425358    1.48128810045655    0.96486986666497
