38
         -69.470801998015          0.000454526698
C           0.25503139344299   -0.49048110158175   -1.82817548980047
C          -0.18922157050106    0.83665353542030   -1.98991840790482
C          -1.53122847497423    0.81605260710700   -1.74870957602344
O          -1.94572147789152   -0.42357196188513   -1.45011030542420
C          -0.85859357305986   -1.23091106853321   -1.49675741504557
C          -1.01035846265722   -2.62339865064237   -1.22541736389073
S           0.34397374140557   -3.69861537615385   -1.26993226077477
C          -0.68722909149753   -5.05745916299629   -0.87737429378222
C          -2.00588524255909   -4.65095408817015   -0.72018889303205
C          -2.18300521167085   -3.28887218117153   -0.91275311098236
N          -0.09660455007949   -6.25225968726883   -0.74738619416092
N          -0.87350202230137   -7.26361096536202   -0.53467360259035
C          -0.24494281651174   -8.44328509702278   -0.35307338642643
N          -0.97559588086374   -9.53412596663630   -0.16045735151659
C           1.15781712509914   -8.78440856407002   -0.30295917893424
C           2.34785217684733   -8.07594108256200   -0.43144846799296
C           3.52698466584216   -8.77928887945463   -0.31652257643982
C           3.53342813985919  -10.15730687957345   -0.07909224936655
C           2.36614641512964  -10.87878020461303    0.05191458391944
C           1.17293596227261  -10.17538640662574   -0.06214901678557
N          -0.14456198312104  -10.56574944212423    0.01272518092039
C          -0.69778994255761  -11.80839004881717    0.23145588936792
C          -0.20564457935045  -13.06948267751021    0.47938280451826
N          -1.23830394945784  -13.93531067023294    0.62102338774599
C          -2.32939899467983  -13.23885586700642    0.46743389841284
N          -2.06062334407212  -11.93451747366908    0.22719136548674
H          -2.68239351079174  -11.15596826833312    0.07252179790788
H           1.25191091467378   -0.86532061684935   -1.93685408550531
H           0.40427912450477    1.68862627591349   -2.25023537230817
H          -2.27250905804617    1.59047719342969   -1.75743348081495
H          -2.77994100374421   -5.35301976528641   -0.46884611319437
H          -3.12603799797908   -2.77792098560712   -0.83589152493173
H           2.32880133292673   -7.01416079609578   -0.61592079441106
H           4.46977948208547   -8.26172196993754   -0.41134827973038
H           4.48025210529202  -10.66982787408951    0.00389237518046
H           2.38445865864893  -11.93993605617666    0.23373006858005
H           0.80347168218377  -13.41157277445206    0.56739808289332
H          -3.32178018184435  -13.63729700135924    0.52177935683417
