33
         -63.590450529166          0.000816801807
N           0.85716649085163   -0.05478753913491   -0.17992863874014
C           2.20970861421805    0.06596746637717   -0.07954001650942
S           2.96815536158023    1.62092280147763   -0.09319835501624
C           4.56313681555685    0.87186203611827   -0.02650342500981
C           4.44522065023172   -0.51071142240023    0.00533557079998
C           3.13238697466133   -0.96286227614803   -0.02514761957692
N           5.60359619475187    1.69912560621181   -0.02254309565703
N           6.78363310266466    1.17313804522790    0.03662395671593
C           7.82353841400286    2.03704154114440    0.04678134492336
N           7.77952523523308    3.36214381822259    0.05101612258182
C           9.19121473192681    1.59634667873317    0.06945716719277
C           9.93404210655904    0.42198744940114    0.08504049708083
N          11.24784673375414    0.46408804617646    0.10812946184088
C          11.85515269400718    1.66671774942495    0.11375934154985
N          13.20293236904582    1.64983530009365    0.09545189771333
H          13.69169996186463    2.51693423507884    0.22436412018609
H          13.67079426782408    0.77240482431907    0.22865047917565
N          11.26549368731179    2.86215480671820    0.11005447083962
C           9.94442136283444    2.79472357584313    0.08464660190229
N           9.04422658941848    3.82112754792691    0.07469400850016
C           9.28479498170842    5.17683259238945    0.08512422981131
C           8.39642174803727    6.21827701090931    0.06847612869223
C           9.19468120287977    7.38578775503391    0.08967902582211
C          10.48790580543260    6.96395162344000    0.11707763851964
O          10.55151020591994    5.61706463078805    0.11489067333217
H           0.30339828049425    0.76632585147872   -0.00608475740349
H           0.44964544683927   -0.93480248968376    0.08891438908670
H           5.31555922826934   -1.14018058602895    0.04769385245533
H           2.84681366264999   -1.99973978403024   -0.01065794196918
H           9.47694362252782   -0.55810484238839    0.08327142483345
H           7.33091738922957    6.13778039951761    0.04423450516183
H           8.84790115748392    8.39847896032959    0.08478531637710
H          11.41870491022949    7.49370858743249    0.13868162478759
