28
         -57.891275148618          0.000679722436
C           2.25677821006803   -1.61901623598986    0.18346935273447
O           2.58983126601658   -0.24738088998197    0.10162695035521
C           3.00731046029357    0.21367628850265   -1.08409431547990
S           3.45681274376226    1.87840345434007   -1.16182132807982
C           3.85728630341804    1.70314710141348   -2.86700292579643
C           3.62724542603827    0.40535854787898   -3.29395506179317
C           3.14617239807522   -0.43512714845808   -2.29256623449687
N           4.26918248596291    2.80227871109554   -3.50398373011970
N           4.68965725097845    2.67694112287387   -4.70838314766256
C           4.95555014480164    3.79633425102305   -5.41034442071993
N           4.40280097681939    4.99336511091870   -5.22804337133901
C           5.79152606054395    3.82438995640035   -6.57717657449813
C           6.62946533790192    2.99417511204890   -7.31674427066657
N           7.24450968483309    3.44656248944221   -8.38410883577461
C           7.05936537456572    4.73220236599173   -8.75014239517980
N           7.71207321105733    5.13169941257639   -9.85313605383003
H           7.62127266632275    6.08236669294731  -10.15926063382659
H           8.30465355382284    4.47969742169623  -10.33153230798012
N           6.29684180769994    5.63614100108396   -8.13232578311371
C           5.68489594347437    5.15513026655987   -7.06390045498345
N           4.85360634403668    5.76562447784429   -6.19879006633028
F           4.34776473723028    7.02911813984766   -6.32146784529644
H           1.96857508663637   -1.79045892373419    1.21837638570145
H           3.11513599137733   -2.24772463336513   -0.06904328400110
H           1.41926827243299   -1.86108970330704   -0.47642640888095
H           3.80641267636991    0.10686408356793   -4.31064906372936
H           2.91142289421235   -1.47190727087331   -2.44935945612495
H           6.80424269124984    1.95987879765914   -7.05369471908713
