38
         -72.126843601137          0.000296997878
C          -0.59453780148420    1.33308529820567   -0.26782255524329
C           0.73008316315768    1.43336012019706   -0.28641802750388
S           1.84315236245950    0.27512445022980    0.43222570060819
C           0.68119981773100   -1.02331221100562    0.68932541198373
C          -0.63781857644507   -0.89182187511063    0.61534893351969
N          -1.31817033117087    0.28846590668325    0.31111066539901
C          -2.67120099165976    0.37201232698236    0.46158959753737
S          -3.60929007017864   -1.01311846150949    0.94090569800511
C          -5.09247180470662   -0.06913662328100    0.88460876170427
C          -4.81852512158453    1.24120382387182    0.51504507657947
C          -3.47592783875828    1.49106616983993    0.28533805022242
N          -6.21137019276173   -0.70858533333789    1.20344239476608
N          -7.32255147019601   -0.03887289323269    1.14537121009434
C          -8.40847495506083   -0.74895283905484    1.51512821153127
N          -9.61436534897931   -0.20765510761208    1.45391666740968
C          -8.51077533422553   -2.09815536604342    2.02529849008282
C          -7.70743715234098   -3.18468951449028    2.34053530524715
N          -8.25116957643679   -4.29239584984573    2.81583175084005
C          -9.56760429799781   -4.33341346988223    2.98231660425250
N         -10.44746719103355   -3.38381369375240    2.72827734054798
C          -9.89855622817248   -2.27310906699228    2.24940439650457
N         -10.50754180204651   -1.10781429552425    1.88685164492497
C         -11.85085250189688   -0.81284047845905    1.92230340636310
C         -12.87606943296558   -1.62381430432482    2.31938899178644
C         -14.12259752365264   -0.97406911890646    2.21528374333514
C         -14.01964706250888    0.29749287834695    1.74811284401597
S         -12.39159913544386    0.75168372293349    1.41695145394458
H          -1.19173314154092    2.08221432968933   -0.76267065019418
H           1.22193707989543    2.25318098804522   -0.77864767886459
H           1.13873264718826   -1.97087075457396    0.90980021017650
H          -1.27660874989711   -1.74631621544493    0.78249795806215
H          -5.60637775170327    1.96794808774511    0.43472372081329
H          -3.10270572860270    2.46378683617648    0.02157345840320
H          -6.63378712787648   -3.17338462282589    2.21376607845688
H          -9.96886696401088   -5.25818574593800    3.37527865871636
H         -12.72620736576785   -2.62930552618420    2.66509439954583
H         -15.05567472790736   -1.43865666996708    2.47808173332607
H         -14.80506177141584    1.00547509835411    1.57511034309566
