23
         -51.720953720596          0.000409970675
N           1.32967444157245   -0.61367497646870   -1.50558280418709
C           2.43242489360088   -0.41194130443541   -1.26018418949523
C           3.77797015333520   -0.18579968702148   -0.95922603976810
S           4.48867973867488    1.37863501560444   -1.14066509431629
C           6.02397688418786    0.75435083119138   -0.60184320620891
C           5.95072237230379   -0.60064119424627   -0.29842544899169
C           4.68343227934196   -1.12771604836301   -0.49843651609840
N           7.03294801044516    1.63714411007131   -0.50872742920197
N           8.18908356110379    1.16564121852216   -0.20365282859978
C           9.16041513409599    2.09256878411191   -0.04479092036119
N          10.40618200351551    1.70247917093353    0.19238590064223
C           9.10097618313783    3.53489446888155   -0.04755141012009
C           8.18972502199509    4.57615858071942   -0.21006957265976
N           8.59867784012605    5.82571850974456   -0.12335472817522
C           9.88148119567424    6.07306437172986    0.12416826685042
N          10.84916985628519    5.19586802158233    0.30295228509164
C          10.43720612952378    3.94122250043024    0.21110447460345
N          11.12756341080745    2.78573086391437    0.33510873710578
F          12.45400916732389    2.65868799993341    0.57989358624725
H           6.80636823146047   -1.14552825012293    0.05679542175121
H           4.41115061343456   -2.15363075356406   -0.32359310396876
H           7.14088949431737    4.40722874246322   -0.41050161962312
H          10.16405338373646    7.11443902438833    0.18843623948343
