33
         -60.419810355970          0.000665038743
N           1.25480465093154   -0.71333452048438   -1.56235131304090
C           2.35725023647417   -0.50292272152619   -1.31502430436563
C           3.69472535471692   -0.26311759923967   -1.00751968471396
S           4.44733556304820    1.25750867714054   -1.38263175526181
C           5.96757403089462    0.67754015200542   -0.75509119613788
C           5.85423863984712   -0.61599145481327   -0.26469151086291
C           4.57515717662479   -1.14069911548222   -0.40510439708776
N           6.98098550204154    1.55661443544579   -0.70735142539145
N           8.17368512653366    1.10005139812870   -0.56374642408412
C           9.15155108569405    2.01284974095042   -0.38549468038532
C          10.48453872530287    1.65365744816710   -0.29648950983901
C           9.10959382605643    3.45328684981223   -0.24421840606776
C           8.07408669772535    4.37871159390205   -0.24155272056505
C           8.39150351336804    5.71254436242315   -0.07748673632134
C           9.71256746114713    6.12381918873249    0.08145479464373
C          10.75799797913698    5.21891741881259    0.08249833312780
C          10.44464243172445    3.87840253497841   -0.08123861267361
N          11.26441563216520    2.75224827915547   -0.11743291122666
C          12.63722737568985    2.70795901384615    0.01360536305175
C          13.48708325910036    1.63394968211512    0.08072107952024
C          14.78539604011464    2.18103902283255    0.20991837830958
C          14.63201856295580    3.53076191486353    0.21198666754287
O          13.32907555039334    3.86001020028089    0.09260466221861
H           6.68743935242636   -1.12538646817512    0.18407573740488
H           4.28360365677925   -2.12899827588459   -0.09510443669626
H          10.90334740729771    0.66976183712035   -0.36173928292214
H           7.05508675523999    4.05017180390363   -0.36635964959344
H           7.60508254663864    6.45220608664071   -0.07128257974729
H           9.92790965742792    7.17434788953578    0.20668077493182
H          11.77494179659106    5.55175300309124    0.20580067667078
H          13.23175003867264    0.59607921527928    0.04774266359956
H          15.70265181211818    1.63599447159892    0.29080069736973
H          15.33138255512218    4.33812393484091    0.28914170859336
