32
         -59.389272625857          0.000270915159
C           0.90345606940377   -0.50750803466324   -0.10622678764156
C           0.84969330656608    0.89599487651200   -0.11567093310149
C          -0.42281360373261    1.37352732971667   -0.05259727320292
S          -1.58916560263926    0.11633878418046    0.01999819494098
C          -0.33690299566650   -1.09464668921622   -0.03555907596503
C          -0.65216404695816   -2.48180968984706   -0.00648320023310
S           0.59828326394241   -3.68136317431731   -0.06105888508056
C          -0.58635576932894   -4.96555808178906    0.01331863377850
C          -1.87398570528725   -4.45101600655927    0.07604952312440
C          -1.90648614009131   -3.06407189325850    0.06480565062881
N          -0.10381247199291   -6.21519319459512    0.00104190653605
N          -0.95337014889304   -7.18240381104613    0.05518721308473
C          -0.38838863798820   -8.41737998999511    0.04038001075589
C           0.99016815624301   -8.79511806391169   -0.02600641031846
C           0.97513879447212  -10.15549085828397   -0.00833940729062
N          -1.16187080724640   -9.50020680156701    0.09352305304137
N          -0.33654351224688  -10.53715003791025    0.06395997443909
C          -0.81488516106955  -11.82772725558097    0.10554784791382
C          -2.09669767837581  -12.29905965806127    0.17625084509592
C          -1.97598863958334  -13.70906309056570    0.19010050886578
C          -0.64545263330289  -13.98151843512043    0.12722716551142
O           0.07346528099263  -12.84013040837823    0.07537304530798
H           1.81202503928659   -1.08088046354084   -0.14919148484716
H           1.71906983846501    1.52655718248746   -0.16710870834381
H          -0.75141730541679    2.39365103250150   -0.04411167350524
H          -2.73229467815980   -5.09601625657960    0.12729377918387
H          -2.80736903013166   -2.47644597010568    0.10671279115792
H           1.82559147580097   -8.12961638425881   -0.07734043170771
H           1.75861249722844  -10.88515327077399   -0.03960113699576
H          -2.98489380075933  -11.70573960313511    0.21234516229395
H          -2.77496807299936  -14.41931720739460    0.24013017999586
H          -0.09592728053124  -14.90096487494251    0.11265992257709
