32
         -63.848405316358          0.000925686297
N           0.99397819253761   -0.26174588731732   -0.05298560563747
C           2.13387392315190   -0.12313054213189   -0.03942784208183
C           3.52119975548646    0.02513583656717   -0.02080205686374
S           4.26312648134968    1.58926769896922   -0.04370877171775
C           5.84348377212529    0.85534470802520    0.00244006911352
C           5.76081853781617   -0.53225427121592    0.03179903839049
C           4.45374451629426   -0.99736366377284    0.01849725091074
N           6.88852042951930    1.69802766661983    0.00436539875549
N           8.05901987193371    1.15991345044090    0.04685340025941
C           9.11379444685653    1.99739187992389    0.06016424010589
N           9.08795768616176    3.32937503589487    0.06375697723638
C          10.47543060115650    1.53766498242917    0.08611969880023
C          11.22528904705965    0.36411663879857    0.10069532579902
N          12.53661190649908    0.41537088439996    0.12765497751736
C          13.15009913024147    1.61593859840788    0.14026476011681
N          14.49152561595423    1.59820862142559    0.15347698444044
H          14.99315739792817    2.46637927099373    0.20211699130438
H          14.96556376560853    0.71552024910597    0.19803733675012
N          12.55126686912769    2.80977566531239    0.13192712723240
C          11.23312803796102    2.72803715211513    0.10399139689590
N          10.34615524117426    3.76540509506336    0.09062058640452
C          10.67284713743254    5.09883604658615    0.10397087028498
C           9.81367068688964    6.16242929798629    0.08793230710701
C          10.50340868164502    7.38971151400688    0.10874158655267
C          11.85342440257670    7.23493916006184    0.13971875129359
S          12.33495730099638    5.58069466566002    0.14465924792029
H           6.64015173601236   -1.14943401106975    0.06103322164623
H           4.17255472294893   -2.03571448313672    0.03692599350763
H          10.77607185049031   -0.61920412904311    0.09224533691988
H           8.74660035063023    6.04635365656990    0.06242764109162
H          10.01255546617337    8.34586347367047    0.10072016678714
H          12.60528243826109    7.99812573865313    0.15996759315663
