26
         -54.437430999803          0.000538109858
C           1.53318472105746   -0.73415648407566    0.89631039295915
O           2.32724429988491   -0.08254884476800   -0.07640169834653
C           2.97824624729680   -0.84986919855882   -0.95540812326216
S           3.94050101099976   -0.03975025885858   -2.13680896472149
C           4.41890904543044   -1.58857252873699   -2.82415166873337
C           3.82913826142425   -2.63727047227282   -2.13533034676016
C           3.01536691536112   -2.22367324403051   -1.08517770329728
N           5.22680664356133   -1.55496417463591   -3.88573685794559
N           5.64109900663755   -2.68162825900965   -4.35720928602994
C           6.38247058377163   -2.57722171564560   -5.48489402044091
N           6.99696171970731   -3.64151260433183   -5.98000492348372
C           6.60419585771896   -1.44583872803379   -6.35454568689883
C           6.27976657846770   -0.09782388307629   -6.46585480346236
N           6.72629798451815    0.60493570757498   -7.48954334491149
C           7.47683039511106    0.00273417813978   -8.40667455732999
N           7.85587437583786   -1.25939079835149   -8.43797383241577
C           7.41225154473292   -1.96092344389146   -7.40478752465957
N           7.59056479865115   -3.25943320810706   -7.09148812454607
F           8.30719754534423   -4.17561658384200   -7.79359891788457
H           1.10811378756523    0.05918937484101    1.50725687005390
H           2.13954738810074   -1.39568806561938    1.52084201386584
H           0.72999649242086   -1.30846305134928    0.42666615391294
H           4.00340857963119   -3.65964994456501   -2.41784885382441
H           2.47691366979754   -2.90086836500254   -0.44763356971163
H           5.66768351530287    0.41503100061590   -5.73709799929392
H           7.81564903166688    0.62073359559118   -9.22667462283235
