28
         -49.384706109281          0.000206514923
C           0.93474930589826   -0.22828492385238   -0.11704223404589
C           2.41265185367946   -0.06685060346953   -0.09880556633730
S           3.13471340109356    1.49736511305937   -0.07012340998257
C           4.73905575729010    0.79862167036742   -0.06034773635383
C           4.67064071078878   -0.58358814531709   -0.07961488416612
C           3.36029740651615   -1.06102176158449   -0.10156159746335
N           5.76548435499271    1.66313176670421   -0.04405011842389
N           6.95516701927635    1.17417037695786   -0.02614924113545
C           7.94129304666964    2.11056872057639   -0.02188833587214
C           7.86034578004607    3.53607497870753   -0.04918026564897
C           9.15635501825808    3.95736653078827   -0.03592741618740
N           9.21584461742709    1.72352613740703    0.00578721125645
N           9.93648934466397    2.83932197740206   -0.00263997847686
C          11.31226512001495    2.77273199456321    0.02045514161694
C          12.30406776172873    3.72522438243851    0.01196204326352
N          13.51242955043575    3.11299739025572    0.04566318283564
C          13.27620053055531    1.83130178578340    0.07369629969217
N          11.94852827690537    1.56392300491757    0.06005349052750
H          11.46187566469435    0.68131393647745    0.07382591870750
H           0.44535121679142    0.74169168973050   -0.11808481224348
H           0.60270189829600   -0.78826533569431    0.75722048560811
H           0.62362900659189   -0.78008916638187   -1.00402891868608
H           5.55670176058930   -1.19198045500974   -0.07848875160052
H           3.10402869442806   -2.10614322770681   -0.11918086394963
H           6.96302261889454    4.11688899105705   -0.07480035304889
H           9.59063439321871    4.93588243168343   -0.04682323774826
H          12.22462026788756    4.79215613984424   -0.01606617854176
H          14.03089562236761    1.07234460029472    0.10408012640451
