28
         -50.191298020668          0.000327121863
N           1.40762309098089   -0.67188739704519   -1.43284738873660
C           2.51718830597516   -0.46171820173492   -1.22241685403852
C           3.86651877041525   -0.22236065734625   -0.96470462566642
S           4.53830832955179    1.37127262539281   -1.09279556032846
C           6.11198968227025    0.75765938516352   -0.66445303952733
C           6.07963444967782   -0.60908154048561   -0.42658210498585
C           4.81470327363342   -1.15806713534680   -0.59491710644164
N           7.10191060676416    1.66300919646524   -0.55570731553150
N           8.29435681774089    1.20168590650502   -0.40464984755912
C           9.25775561447998    2.12593829894509   -0.22283318795954
N          10.52139690729529    1.72313199223444   -0.09372727611416
C           9.19783051028109    3.56539409712133   -0.12619587047670
C           8.19928846218853    4.53257917049742   -0.18207758050798
C           8.57722626905392    5.85040519572230   -0.04064867741923
C           9.91442520147336    6.21546944053450    0.15368200508698
C          10.92041392765531    5.27604850270074    0.21231469064805
C          10.54396021367536    3.94460872772712    0.06885514160344
N          11.27610289494550    2.78929404112403    0.07658345170124
C          12.69310560849106    2.66326465486821    0.24175530690765
H           6.96131297129901   -1.15124882483628   -0.13748771471714
H           4.57732734714362   -2.19918127487925   -0.46309015902276
H           7.17090488945561    4.24695420940966   -0.33256783573725
H           7.82775295559136    6.62657703590842   -0.07970891221135
H          10.16028688507392    7.26154545735815    0.25999883738142
H          11.95086848159698    5.55907154520696    0.36222798681394
H          13.21821762169791    3.22124117408267   -0.53643558699715
H          12.94309635708641    1.60716932465848    0.16595359848175
H          12.99964355450598    3.04236505004913    1.21925562535197
