25
         -46.463096088520          0.000864542642
F           1.00295065998694   -0.15630182635771   -0.01415611302821
C           2.32947789797228   -0.02119496855085   -0.00329629668936
S           3.03420499326120    1.55230138359045   -0.00148927154859
C           4.62906684992669    0.82065609306228    0.01389046396684
C           4.55051198111166   -0.55634477921238    0.01686303854060
C           3.23553259475577   -1.03927537516072    0.00702303066146
N           5.67013238179526    1.67600109876671    0.02133899906322
N           6.85101724301218    1.15877947517824    0.03233098134218
C           7.87766314024136    2.03998367635779    0.04070072982020
C           7.86661092916122    3.43069553052804    0.03938283929296
C           9.26355189232089    1.64757645688256    0.05430493523644
C           9.91909731974553    0.42155812313665    0.06169038127229
C          11.29839741311443    0.41801190686596    0.07521429654228
C          12.03058935777588    1.60666739443731    0.08150284544705
C          11.40280746960064    2.83577134972212    0.07430351161158
C          10.01591310447640    2.84276784691068    0.06062122605329
N           9.13429256717136    3.89663949731859    0.05117142109752
H           9.39803739302801    4.86883405947433    0.05291623031008
H           5.43063742940837   -1.17224716276937    0.02592384656105
H           2.95891031688215   -2.07745545335014    0.00744974166067
H           7.01642390608404    4.08460700914944    0.03059912152689
H           9.35182775538055   -0.49532108847036    0.05685998101379
H          11.83042748801159   -0.52159945617962    0.08122749783635
H          13.10922231999719    1.56184960350772    0.09225808647935
H          11.96743559577840    3.75631960516226    0.07911847593005
