32
         -55.534784969320          0.000698141478
C           0.85210972700339   -0.44491763898627   -0.06954529262840
C           0.64071044662227    0.90898828248209   -0.07075737293646
C          -0.75811841034716    1.04950276906519   -0.02157435793757
N          -1.35296798001498   -0.12206462005010    0.00799496985235
N          -0.37227363934221   -1.03139929623438   -0.02151108856068
C          -0.65681679585090   -2.37673211906623   -0.00187664191103
S           0.60523812028647   -3.56096318301507   -0.03795109215174
C          -0.58295080610308   -4.85047640750348    0.01363820199446
C          -1.86621588644508   -4.33710577917234    0.05529853027746
C          -1.90827043682845   -2.94334176395100    0.04664350785257
N          -0.09102608024312   -6.09936348758142    0.00583700057982
N          -0.94153091423801   -7.06997622902757    0.04204879986927
C          -0.40444686701840   -8.31306914026089    0.03330549588372
C           0.92644078603557   -8.71300033068812   -0.00699914529400
C          -1.18770990410577   -9.52104548754349    0.06703280111309
C          -2.55211753179035   -9.78469514783228    0.11293777589453
C          -2.96344997521678  -11.10120731310552    0.13502998285861
C          -2.04485726555299  -12.15219730455469    0.11227145510902
C          -0.68577847075875  -11.91611695876605    0.06680446290644
C          -0.26927993759932  -10.59322614433151    0.04457187154016
N           0.99730039151290  -10.06315903114409    0.00003923193568
H           1.84810200974542  -10.60193301988902   -0.02359830522768
H           1.74912576991323   -1.02929627867529   -0.09807449535110
H           1.37468927870265    1.68717027867299   -0.10227265741212
H          -1.33869020598614    1.95018470458672   -0.00653526267355
H          -2.72598082673260   -4.98078345039478    0.09054327954740
H          -2.80148379109960   -2.34702308781516    0.07392897317278
H           1.80193470464334   -8.09408511495487   -0.03941848700879
H          -3.26001010120215   -8.97154815717558    0.13041527943321
H          -4.01795020417776  -11.33134460084387    0.17068763423759
H          -2.40619260688410  -13.16959817014071    0.13064269672146
H           0.02656740307264  -12.72773677210319    0.04913224831346
