35
         -59.071833394455          0.000406866080
C           0.41260331908356   -0.40138169800592   -1.65235958813146
C           0.02822636875629    0.93703148083752   -1.87188751306982
C          -1.32930581705780    0.96221675940433   -1.75737636126882
O          -1.80992859308318   -0.26099931925883   -1.48316424336370
C          -0.74918194466701   -1.10149711435361   -1.41748482016314
C          -0.96551156690916   -2.48475355991141   -1.13653730871489
S           0.36513107985236   -3.58838855961300   -1.01911427465454
C          -0.72535968137716   -4.91390035783003   -0.68025407321010
C          -2.04131547426351   -4.48170564031720   -0.67253340899228
C          -2.17282730964690   -3.12119730093362   -0.92869160716943
N          -0.16725404704957   -6.12419377418350   -0.50824154785621
N          -0.96549140177001   -7.09386793355462   -0.20545900672989
C          -0.39233661021471   -8.30944439252974   -0.06750271359510
C          -1.12551987738115   -9.44066460260078    0.25983090017947
C           0.97754751258236   -8.74940841397433   -0.20780321759888
C           2.17135949752254   -8.10812957102602   -0.51759600031966
C           3.32470620836141   -8.86479778039525   -0.56621921157692
C           3.30627242157250  -10.23661622904932   -0.31389152443287
C           2.13264588442714  -10.89470278154236   -0.00337431401007
C           0.97052044479990  -10.13829420185900    0.04800944341231
N          -0.32189128360888  -10.52371715926487    0.32949157928751
C          -0.73118328028644  -11.86276537012848    0.63830528187195
H           1.40250200700324   -0.80872816635756   -1.66293028263824
H           0.67093034538397    1.76615587483773   -2.08575292377335
H          -2.04139278739021    1.75868110687605   -1.84499613173509
H          -2.85443331879319   -5.15978037354805   -0.48701001737466
H          -3.11062534963644   -2.59580044117730   -0.96536268431307
H          -2.18043740340487   -9.51145678191900    0.44344998700951
H           2.17923594983378   -7.04781818255204   -0.71175474132280
H           4.26481459885012   -8.38981098760878   -0.80476256405863
H           4.22941707750596  -10.79523096122741   -0.36258588182817
H           2.12399757803999  -11.95691264476886    0.19082797301858
H          -0.18284149841058  -12.23749642123386    1.50612691148107
H          -0.53819476951747  -12.52758160486220   -0.20795835728542
H          -1.79651827910596  -11.87417289636688    0.86101224292554
