25
         -50.359239142802          0.000445375091
C           0.85321622241641   -0.42355000243404   -0.02940673575364
C           0.62976549070776    0.92650885963743   -0.03195077636703
C          -0.77356072341088    1.05500217627640   -0.00147492530827
N          -1.35774211733116   -0.11966074286561    0.01719658691769
N          -0.36837363686865   -1.02204251468308    0.00054453552448
C          -0.64338589811638   -2.36633517825767    0.01333172129750
S           0.61995496359549   -3.54442499556456   -0.00663892241859
C          -0.56675303564553   -4.83429055252591    0.02400599396074
C          -1.85503610775991   -4.32482662757744    0.04810518503259
C          -1.89920273002305   -2.93482809871163    0.04207558874055
N          -0.08191021374547   -6.08369328446564    0.01953987454594
N          -0.93304814512412   -7.04694471870354    0.04075729199068
C          -0.37544767772940   -8.28789762777137    0.03480383459604
C           0.99145323051010   -8.68946301167051    0.01151818313217
C           0.95655632516490  -10.05896546992867    0.01669829523425
N          -1.17224323328014   -9.36232311502501    0.05276596718221
N          -0.35392632980938  -10.36619072457173    0.04130235569999
F          -0.84200070483351  -11.63506821407746    0.05408833577079
H           1.75623084856070   -0.99913979997189   -0.04611362479822
H           1.35623649936873    1.71182433235113   -0.05233347860988
H          -1.36109939986804    1.95101903460145    0.00663946058718
H          -2.71062378093771   -4.97514908129179    0.06891545394808
H          -2.79221720881334   -2.33801669779662    0.05750538763729
H           1.84268935498861   -8.04248205073553   -0.00583971189542
H           1.71739800798404  -10.81139189423659    0.00551412335292
