21
         -40.858244874025          0.000366916502
N           1.05229899856334   -0.03742130506020   -0.07978412734748
C           2.40120577374199    0.08312483411138    0.00784908970597
S           3.15749686840880    1.63782348199137    0.02382920479358
C           4.75317485967251    0.88733279181073    0.05680848699017
C           4.63791548509705   -0.49577710385115    0.05805362545010
C           3.32642757497965   -0.94697821797890    0.03067536565750
N           5.80108489569997    1.70744565938712    0.06894078396244
N           6.97655788683439    1.17443563181051    0.09669990662269
C           7.99531887849784    2.07613464411170    0.10216516900290
C           7.95666155388928    3.51393035009591    0.09082271681226
C           9.25654875603209    3.89759373445957    0.10234809489534
N           9.24438783846973    1.64408922466125    0.11961664645228
N          10.01117877931381    2.74409906205867    0.11940212864617
C          11.33609370562478    2.69819487157719    0.13268016020653
N          12.48099336648990    2.69962114052472    0.14347248959642
H           0.48626235879158    0.77511450505769    0.09261666975150
H           0.64301282181069   -0.93264400992632    0.12831958701959
H           5.51186635881689   -1.12140897204541    0.07828790799720
H           3.04050771939059   -1.98357036942035    0.02452693464488
H           7.07562905147874    4.11996195484606    0.07661852640864
H           9.72742646839639    4.86064809177854    0.10015063273130
