36
         -69.534798070547          0.000455558421
C           0.37956736082457   -0.44719338372125   -1.69216871610726
C          -0.02040717683091    0.89454822666590   -1.84142876809421
C          -1.37260768609397    0.90603967251991   -1.66000537968074
O          -1.83361593038403   -0.32675140592636   -1.41070426164280
C          -0.76817195099161   -1.16363366978594   -1.42783418470741
C          -0.96819927622740   -2.55567235523350   -1.19172652255517
S           0.35659790712680   -3.66492811610048   -1.19528123004580
C          -0.72620422255154   -4.99916223716662   -0.85849289585179
C          -2.04162072087102   -4.55956520725071   -0.75558691721358
C          -2.17351102293965   -3.19317755560602   -0.94100278207226
N          -0.17353038659300   -6.20934264723510   -0.73268567713543
N          -0.97461584416195   -7.19942186772633   -0.50755693591025
C          -0.35816246150880   -8.39046498160191   -0.35693181463131
N          -1.07224770081596   -9.48568408646377   -0.14846546573343
C           1.04724694707516   -8.72627746685049   -0.36439057624026
C           2.29046344262997   -8.12447745404207   -0.51151071359810
N           3.38828929358331   -8.85585910074455   -0.43775533438413
C           3.27302122770158  -10.16066952632841   -0.22141593790442
N           2.16559132258527  -10.86043701803306   -0.06318842920678
C           1.06382936410828  -10.12395951091306   -0.13845612968050
N          -0.23840968076753  -10.52018938525225   -0.01867723245537
C          -0.71418583716364  -11.79151170301964    0.20647765475909
C           0.00814042321646  -12.94151857993809    0.35956737082376
C          -0.82850707716747  -14.05453312144340    0.57571087045372
C          -2.14861776944527  -13.73144636458301    0.58197369006183
S          -2.42148406661694  -12.05163045342458    0.32408746001430
H           1.36972865621067   -0.84748297870286   -1.76535775766156
H           0.60698539950537    1.73518408302426   -2.05434582359855
H          -2.09060270983730    1.70187527187037   -1.68285465094539
H          -2.84323960671607   -5.24557136698549   -0.54978446715194
H          -3.10449646484526   -2.65647017105533   -0.90079535454264
H           2.40900294217790   -7.06450336780719   -0.68784280524248
H           4.19822245224424  -10.71859757446007   -0.16747850238555
H           1.08076316164324  -12.96902327772957    0.31689915358078
H          -0.45897760421548  -15.05345652001848    0.72021702656208
H          -2.98875470389129  -14.38124479893315    0.72371204012260
