26
         -50.251566937481          0.000840817630
C           0.91498034826955   -0.49710594085491   -0.02966212288380
C           0.85866028683480    0.90511878183720   -0.04601350779688
C          -0.41730346780740    1.37991600973163   -0.02443126392011
S          -1.58261690470457    0.12312473268402    0.02011052491972
C          -0.32717187150925   -1.08618787902316    0.00595138223132
C          -0.64148147412472   -2.47271735646996    0.02737155375383
S           0.60586480346172   -3.67328922836419    0.00456279155436
C          -0.58458099513122   -4.95471433497094    0.04037692114953
C          -1.87431903024885   -4.43579844702445    0.07023443585313
C          -1.90185852235544   -3.05135138284887    0.06344916004786
N          -0.11489597181991   -6.20644452660618    0.03065123533423
N          -0.97573042787606   -7.16384564693565    0.05087605769180
C          -0.42298328528826   -8.40705540544928    0.03366885602185
C           0.95965095571767   -8.80015155241799   -0.00245200069282
C           0.93528180203959  -10.15542076294566   -0.00720706060369
N          -1.20940388619479   -9.46995123470212    0.05101039110106
N          -0.39176699306879  -10.52812463183500    0.02538289559296
C          -0.82903792076704  -11.78123427428916    0.03287036097963
N          -1.15965713133858  -12.87675638631089    0.03392205217037
H           1.82577293726615   -1.06838542248344   -0.04220471004689
H           1.72725399944478    1.53788522879226   -0.07375557509698
H          -0.74655770430231    2.39988508931440   -0.03056572400291
H          -2.73485013343095   -5.07950203432336    0.09533623053756
H          -2.80113862084847   -2.46051625567052    0.08214304846258
H           1.80090405034992   -8.14030960687414   -0.02121547767494
H           1.71204515743117  -10.89364753195495   -0.02982045468596
