31
         -56.152356312501          0.000882773955
C           0.87550972097896   -0.40386825873018   -0.07266406558899
C           0.58502052154786    0.97484566414805   -0.06899553304972
C          -0.77390854301645    1.07227847671911   -0.01525995828824
O          -1.34111996106176   -0.14249371980658    0.01447154329299
C          -0.33843217575066   -1.05258655273591   -0.02036759238063
C          -0.65076030538739   -2.44540147664882    0.00070106292496
S           0.59924320929760   -3.63894960549017   -0.04119721991708
C          -0.58708531370474   -4.92495462524212    0.01496132835878
C          -1.87543885817204   -4.40812882118133    0.06267535529721
C          -1.90860806955297   -3.02086131377045    0.05461703323155
N          -0.10361117133593   -6.17276419236779    0.00512262963587
N          -0.95298814105739   -7.14079980126658    0.04648129843956
C          -0.42966769207538   -8.38976165007136    0.03611366023405
N           0.85838356373918   -8.71920810848295   -0.01171888343707
C          -1.23511029553303   -9.58168211276907    0.07807639822745
C          -2.59632227838576   -9.86543920501631    0.13416414315558
C          -2.97636052558571  -11.18878773115134    0.16068643969344
C          -2.03422006775125  -12.22476063547548    0.13262187150495
C          -0.68209260455103  -11.97139282353878    0.07713661355467
C          -0.29406067127564  -10.63599352337409    0.05018784020026
N           0.93197295684790  -10.04352113878104   -0.00318793650395
H           1.83518101668773  -10.49010225910359   -0.03479970339397
H           1.83834836861845   -0.87022129882408   -0.10846231732823
H           1.28700225919971    1.78230033721887   -0.10166569226647
H          -1.43095422998813    1.91906331485172    0.00618167426448
H          -2.73732588543630   -5.04931478477449    0.10137673105954
H          -2.80694175925844   -2.43035121744769    0.08643723685513
H          -3.31883939613636   -9.06544997157159    0.15565331742161
H          -4.02477186368536  -11.44372387280335    0.20422575463480
H          -2.38128976422960  -13.24709349675294    0.15526565404147
H           0.04565795601401  -12.76816559575959    0.05545131612612
