33
         -63.108486740692          0.000485597745
C           2.44473731495991   -1.88029114964608    0.05126890401546
O           2.29198652299508   -0.48058671966850    0.17737031868403
C           2.80468469027611    0.09582194254338    1.27190229405861
S           2.61444463448989    1.80600815796903    1.41576273145946
C           3.46079103282172    1.78136888564836    2.95959611777842
C           3.84682465883302    0.49309937930868    3.28845845864836
C           3.47995269971807   -0.45755804425934    2.33803026564961
N           3.63287728399895    2.95502600806390    3.57448594721742
N           4.19986838510937    2.93784998370854    4.73452261575828
C           4.40995670771277    4.15907345982698    5.27312421498995
N           4.86750719202096    4.27112550412981    6.50963688004956
C           4.25791163704536    5.47377921992824    4.69469590462766
C           3.86023561700195    6.08110055222547    3.51066344442306
N           3.88386058952306    7.39800487033901    3.40624982823600
C           4.29777816143277    8.11290214589027    4.44600967855117
N           4.70508198453707    7.67335913094378    5.62116464156694
C           4.67561725529255    6.34991204193345    5.72610083141927
N           5.02480114760735    5.56892561697146    6.79001520454381
C           5.47350611568760    5.97735860525606    8.02530539915416
C           5.68399549524983    7.25543754599172    8.45990792530540
C           6.14252851778881    7.28142968407041    9.79239685368704
C           6.26877270145066    6.04123081641880   10.33320942522919
S           5.83147239597836    4.79106256067300    9.23353867189104
H           1.96760917522998   -2.14440967868745   -0.88977817120816
H           1.95267000691034   -2.40598828196787    0.87416619904792
H           3.50146991984437   -2.15933790103543    0.01976066997643
H           4.38110221727941    0.28391443548864    4.19723952886574
H           3.70081863719763   -1.50520313079884    2.43062400069465
H           3.52315019871862    5.51846628712730    2.65124973074377
H           4.30200741587792    9.18662863637371    4.31371163026308
H           5.51390392995928    8.11868700476883    7.84438186048606
H           6.36768379637736    8.18846467048079   10.32331154338209
H           6.59418196107412    5.77928775998656   11.31994645080755
