27
         -49.651781956259          0.000843392542
N           1.11525579734185   -0.22440483807162   -0.07836669733022
C           2.46690870274514   -0.07172208093066    0.01192958666027
S           3.18354632864834    1.50325485045440    0.02447885697851
C           4.79854833383522    0.79573490643846    0.05553385604380
C           4.71951666389668   -0.58671031107439    0.05919974412214
C           3.41692561944040   -1.07380325507883    0.03413170568630
N           5.81941569375577    1.65388044405223    0.06791270594298
N           7.01489904427075    1.16859379803913    0.10509250555274
C           7.99501568076611    2.11124049437336    0.11398100500750
C           7.90706879517789    3.53676621916031    0.09392370134684
C           9.20052554515447    3.96551028896094    0.11720467781108
N           9.27071789924106    1.73091481620587    0.14737268097044
N           9.98721254033175    2.85265811497169    0.14863780103108
C          11.36259496779863    2.78892073222807    0.17893327308577
C          12.35478231764798    3.74061006543769    0.18725289795958
N          13.56334783138293    3.12720637209845    0.22195558918866
C          13.32615217619068    1.84560694617979    0.23296257941382
N          11.99808334844433    1.57949891343290    0.20850631623981
H          11.50894225484944    0.69819566632419    0.20936575653431
H           0.54435792741102    0.57884172431929    0.12608139144223
H           0.73578449213352   -1.11667721735860    0.19109741932335
H           5.60738222333738   -1.19233637739582    0.07899130718194
H           3.15998892440871   -2.11816852723480    0.03039389408696
H           7.00708548453583    4.11347662580835    0.06674697415786
H           9.62933411031289    4.94662386629191    0.11432457522937
H          12.27597422220680    4.80783599718301    0.17143601387974
H          14.07975307473438    1.08536176518470    0.25899988245305
