34
         -58.983527486557          0.000710136381
C           1.29769712000212   -0.62627904817606   -1.24987060276660
C           2.74930084929460   -0.36827174471253   -1.07045558335310
S           3.34732458058210    1.24249631803219   -0.89374954548361
C           4.98861274283425    0.65359221569123   -0.73500479841026
C           5.02454962578204   -0.72659796964823   -0.81908711021119
C           3.76194118390183   -1.29124169399923   -1.00767851373689
N           5.94615446704856    1.57750659246917   -0.56170312349188
N           7.15756708070167    1.14692210903814   -0.45088497642821
C           8.09307396987204    2.10811708240654   -0.28555968629124
N           9.36285488854716    1.74835047275839   -0.15751848695253
C           7.98720330424987    3.54674475327193   -0.22422314436039
C           6.94227841154409    4.46183555197713   -0.30181229782333
C           7.25420678181657    5.80005484965934   -0.20512808515010
C           8.57414750171509    6.23042472182179   -0.03662076666924
C           9.62444747143260    5.34154977443199    0.04365098426959
C           9.31669216046796    3.98938244814184   -0.04992281565094
N          10.09652272803009    2.85676494244998   -0.01536287092319
C          11.45829324763296    2.71204141605132    0.13845203542219
C          12.51615198120304    3.56748930560721    0.34513074705793
N          13.66408436056124    2.85165829237128    0.42613694998881
C          13.33153672904089    1.60036754575465    0.27623396765558
N          11.99779113447398    1.45523438133386    0.09687805081591
H          11.44355446237235    0.62394701502629   -0.03865320404621
H           0.88098884275446    0.03220535264258   -2.00992111587603
H           0.75950172878838   -0.44005354274207   -0.31998404377097
H           1.13447604230453   -1.66018669966591   -1.54417713996699
H           5.94720423954413   -1.27261698875876   -0.74491033971121
H           3.58898478220091   -2.34975199060935   -1.09823704602371
H           5.92947950049424    4.11745765292180   -0.43397106357696
H           6.46792147519372    6.53783662378653   -0.26155806434289
H           8.77487377942646    7.28925834150522    0.03122906999904
H          10.63701502227135    5.68545388963955    0.17034437919030
H          12.53375506354135    4.63201685692490    0.44318553469010
H          14.01832274037311    0.77902117259751    0.29072270592721
