33
         -62.702826796189          0.000552590415
C          -0.57850763514774    1.34592686012785   -0.23243042717626
C           0.74646360513100    1.38950669917012   -0.31684286827695
S           1.83608751087929    0.09128040617503    0.16172103558299
C           0.62097579807141   -1.17519239959206    0.32128146307142
C          -0.69122421301867   -0.97573415592470    0.34392599591150
N          -1.32526256656015    0.26237712641748    0.23389748061861
C          -2.66501679007060    0.38399602052043    0.46829938365748
S          -3.65170491130853   -1.01488287960655    0.78605605289758
C          -5.08424411101228   -0.00834532187963    0.95046710190395
C          -4.76067018545025    1.32767778412948    0.76343786748579
C          -3.41677132869753    1.54997003092941    0.50395947235224
N          -6.21284297647565   -0.63793848313015    1.26226669498189
N          -7.29863260664362    0.07043726428724    1.32327092052300
C          -8.38337756355892   -0.61595596191457    1.73355699267762
N          -9.58299902474742   -0.03554239278205    1.73513673078526
C          -8.50360622487652   -1.95835260547184    2.24206606411379
C          -7.73434708467480   -3.08372333657761    2.50832163680925
N          -8.30330684898832   -4.17557295321523    2.98795835969120
C          -9.61578597685356   -4.17240052180488    3.20749998458338
N         -10.46763067284295   -3.18672891213419    3.01406012805419
C          -9.88678127511326   -2.08592234583508    2.54019712642365
N         -10.45979905263385   -0.90719091127098    2.21473376842228
N         -11.77694992400324   -0.54628745463969    2.41441296038818
H          -1.16101065192801    2.18499093225083   -0.57807614363577
H           1.25418006526813    2.24930842340226   -0.71633401911017
H           1.03885920146333   -2.16332211570432    0.39411905196133
H          -1.36360802192909   -1.81519413700593    0.44144323849178
H          -5.51044585799330    2.09421508426910    0.83786299015206
H          -3.00578795909199    2.53429960031820    0.37146180962147
H          -6.66772101675665   -3.11648481616326    2.33367400708727
H         -10.03360448530711   -5.09355776892655    3.59147928567200
H         -12.38269701144829   -1.34500377874163    2.24816237584019
H         -11.99935020368462    0.23904702032546    1.81008347844506
