29
         -54.252573173445          0.000470110258
C           2.04737034359262   -0.74694011643474   -1.59387494241520
O           3.05473523615655   -0.24615580762899   -0.73719560565520
C           3.48022122430343   -1.04897404604983    0.24529284412303
S           4.70557929091852   -0.42330812774989    1.28778312002385
C           4.70969588100717   -1.92761347529252    2.20328333841726
C           3.79139442760529   -2.82347081951641    1.68249055242164
C           3.09658576392424   -2.33004479137439    0.58040366970621
N           5.54477029808127   -1.99940800437259    3.24475762622118
N           5.58905144022122   -3.11115582549985    3.89335970157668
C           6.37986818595782   -3.10195091271812    4.99349719187477
N           6.64700536836069   -4.23739651734105    5.60575431092247
C           6.96986500829936   -1.98678862634317    5.71176172110319
C           7.00855521345672   -0.60676135706778    5.54913506246118
C           7.69858914277468    0.12808597945565    6.49124475414290
C           8.33429086647820   -0.48075807748035    7.57656056144525
C           8.30430268170822   -1.84870532322926    7.76052078989742
C           7.61318528734081   -2.58316791830841    6.80986969997646
N           7.39061837347736   -3.94733159731158    6.69316785580558
C           7.84465501934333   -4.86997078018145    7.52507414039684
N           8.26100671232620   -5.63207625179283    8.27251399637520
H           1.85198173267306    0.04636508787814   -2.31233514569817
H           1.13399534332716   -0.97286942720449   -1.03633921735518
H           2.38696286969226   -1.64427136450309   -2.11865620792253
H           3.65325037123754   -3.79817295904572    2.11432175392053
H           2.34568843003270   -2.88933112736296    0.05261668400460
H           6.51705157675775   -0.14312593027191    4.70926525703347
H           7.75192451588608    1.20184818118061    6.39239485298243
H           8.86015664326616    0.13550314440049    8.29003811639450
H           8.78813275178821   -2.32686320883199    8.59800351781993
