31
         -60.376491207931          0.000490646736
F           4.70789271873703   -4.37707487080334   -1.29278756074007
C           5.08403184486254   -3.12814795771953   -1.02628535288167
S           6.66624339439262   -2.59482027957616   -1.44620759011462
C           6.28594572281823   -1.01061400055268   -0.79698514092359
C           4.99748037615386   -0.96719187296314   -0.29468509940107
C           4.31008523468559   -2.17752900350435   -0.42379607718787
N           7.27578439824369   -0.10426985871375   -0.82330713576916
N           6.98418491223754    1.09339675957025   -0.45868056774355
C           8.00215904893462    1.97245203886321   -0.36492047370659
N           9.30003271885996    1.68639594916950   -0.32616346260471
C           7.81001081282982    3.38947426452558   -0.19972800997124
C           6.70919163393865    4.23805947814973   -0.16251185627264
C           6.94324512925535    5.58505230706369    0.00783890863066
C           8.24177135114049    6.08962534344436    0.13436683372689
C           9.34854585138524    5.26856102431236    0.09715758585051
C           9.11534927965675    3.90897681936846   -0.07202712077182
N           9.96516814054083    2.82598456120958   -0.14677861260570
C          11.33575130548233    2.79258792125204   -0.04038566921852
C          12.18284993456943    1.71753681062236   -0.08927879990194
C          13.48064469251596    2.25652841830243    0.06749834187998
C          13.32540853047641    3.60098965655210    0.19813575325236
O          12.01894727554921    3.93956512680797    0.13317851395812
H           4.59656358843942   -0.07568309959984    0.15134180428495
H           3.30151369484266   -2.35486101677785   -0.09850452015323
H           5.71208739996420    3.84020163725770   -0.26181344419341
H           6.11146824637003    6.27250870135975    0.04492048128330
H           8.37913075984566    7.15273462927976    0.26370008956331
H          10.34709086669544    5.66145440369213    0.19306134366326
H          11.89592994037887    0.69638787386772   -0.22056135079803
H          14.40215444882984    1.71254298042396    0.08053482760293
H          14.02564674736798    4.39986525511554    0.33527336126332
