29
         -56.699600210269          0.000770483895
C           0.89205528863430   -0.39681614846163   -0.02975057399392
C           0.60232397951092    0.98114623845646   -0.02103293534892
C          -0.75822677421852    1.07862902658166    0.01535336913754
O          -1.32593008281795   -0.13456992686245    0.02958521510787
C          -0.32388704719804   -1.04564652028579    0.00223531976116
C          -0.63853551510359   -2.43695928883230    0.01043667347553
S           0.60439614164498   -3.63482037174645   -0.02171306409826
C          -0.59034788261155   -4.91504281696856    0.01132865810936
C          -1.87880759462911   -4.39005891664665    0.04471089954084
C          -1.90332219441770   -3.00508521503149    0.04420410338142
N          -0.11890137456623   -6.16342729163327    0.00205918671482
N          -0.97589143034483   -7.12538357132789    0.02728430425554
C          -0.45898299549098   -8.37840327006150    0.01898483668113
N           0.82209770296923   -8.72389182791566   -0.01339077528526
C          -1.27634718448893   -9.56164327881672    0.04684092012785
C          -2.61114507295452   -9.94528127669619    0.08463484124002
N          -2.92925760161576  -11.22648412822739    0.10020442154451
C          -1.95354864065508  -12.12960599639236    0.07903118561480
N          -0.65344658282525  -11.91532579398351    0.04299735454616
C          -0.33526153852062  -10.62600039007981    0.02740700819425
N           0.89031464915027  -10.05597363025345   -0.00836448244992
H           1.78738900494779  -10.51596616457293   -0.02986713438633
H           1.85501856344217   -0.86371232337957   -0.05577007844646
H           1.30468126843578    1.78860577313614   -0.03912988484335
H          -1.41430840894331    1.92634075076794    0.03356008368450
H          -2.74373955198867   -5.02801686446057    0.06824689543792
H          -2.79729683314846   -2.40772866536998    0.06745977063630
H          -3.42600309122348   -9.23456908768096    0.10238456022832
H          -2.26532920097285  -13.16530902325506    0.09354932143256
