32
         -59.848076938636          0.000776564040
N           5.82957050345295   -5.60406796084149   -1.71077746564013
C           6.19533027764921   -4.55618521062060   -1.41454331746669
C           6.62242799775509   -3.28154777965872   -1.04497195804931
S           8.08499217980167   -2.59839585419429   -1.68115571618354
C           7.80048116688559   -1.12601479965102   -0.79084941106754
C           6.63707304658378   -1.20639132298353   -0.03185822055192
C           5.97906254782951   -2.41948685345801   -0.17444515707879
N           8.75313344009505   -0.18642313987530   -0.84874143038191
N           8.45351691426679    0.99674365984099   -0.45422186478238
C           9.44978750556065    1.89010668296382   -0.32468545830417
N          10.75212866010939    1.62854499284049   -0.25106608985848
C           9.22829451470118    3.30003705208957   -0.14604294847722
C           8.10546653646064    4.11869350292410   -0.13144405242248
C           8.30020063553584    5.46891494017262    0.06032485190998
C           9.58279267778719    6.00018774004462    0.22606512207767
C          10.71000254021479    5.20604344252069    0.21202430509971
C          10.52012979546793    3.84137639837578    0.02602748493666
N          11.39261979746844    2.77391321432303   -0.03612403784543
C          12.76110437417541    2.73696290541467    0.10511823128002
C          13.53364923185306    1.61432347661292   -0.03175753844695
C          14.90080301254215    1.87590074676181    0.17645998975984
C          15.15362130149106    3.17790919467438    0.46608845317373
S          13.72059096978066    4.12968420541784    0.49551983798003
H           6.31819166091400   -0.39710595851481    0.59966323555943
H           5.05928545328251   -2.67849143982303    0.32009568932978
H           7.12326542176954    3.69500547831675   -0.26498054561267
H           7.45162799286998    6.13582215484817    0.08223754880781
H           9.69353360382674    7.06452021598815    0.36827170420670
H          11.69002565995595    5.63592531389844    0.33654113957948
H          13.11487879839285    0.65577429499532   -0.27290648482168
H          15.66527623677466    1.12334089876862    0.11095681222399
H          16.09377554474490    3.65151980782886    0.66457729106712
