32
         -59.512684541598          0.000597160977
C           0.78686087199353   -0.41557803617193    0.29620589304706
C           0.55176161906159    0.93232859295078    0.28355508029105
C          -0.82789142221306    1.05079578665509    0.01915621576411
N          -1.38800966825321   -0.12762658683648   -0.11758919284828
N          -0.40604637533626   -1.02283821092104    0.05097308191268
C          -0.66135605016595   -2.36778341085308   -0.03462888454840
S           0.58259584004598   -3.53979849990070    0.21153528931468
C          -0.56492342733941   -4.83504296033724   -0.07767653832110
C          -1.82893515696964   -4.32960905502523   -0.34207765130761
C          -1.88414522673571   -2.94106207005629   -0.31566784429178
N          -0.07957523442698   -6.07823490128250    0.00764852601340
N          -0.88504552363048   -7.05336766313387   -0.24386658198368
C          -0.32793117906868   -8.27901169997156   -0.10436561820710
N          -1.02854780536117   -9.36614051561369   -0.39699820971835
C           0.98520469404326   -8.66091246728032    0.35414275684599
C           2.17318892158472   -8.10566327398964    0.81265757334784
N           3.18045419558436   -8.89215990638545    1.14681544720710
C           3.03004531454362  -10.20839939535584    1.03959818441386
N           1.96745791227543  -10.87155436910075    0.62888394425486
C           0.95607034511969  -10.07755137334089    0.29000290241459
N          -0.26853349834981  -10.43335748614565   -0.16512548924589
C          -0.74281296305515  -11.76491736540097   -0.40167880867641
H           1.67962100545997   -0.98543235832024    0.45432492839688
H           1.25573403312873    1.72304972013293    0.43835405213710
H          -1.41537334436187    1.94222154360165   -0.07193944608228
H          -2.65906118999187   -4.98264658848813   -0.54097927773844
H          -2.76104962303302   -2.34626244581377   -0.49218769626350
H           2.32145345452138   -7.03936232644225    0.91278181537793
H           3.88395960402866  -10.80801456922902    1.32568687264931
H           0.03330684942528  -12.45522460952411   -0.07767223736861
H          -0.94972007422545  -11.90668009910093   -1.46365690162201
H          -1.66151689829904  -11.93688339931884    0.15977781483779
