25
         -51.013168392316          0.000638952154
N           1.10815875217286   -0.21105313601041   -0.07383832558451
C           2.24849192402171   -0.07638288683001   -0.07719688635708
C           3.63702956970289    0.06828714794449   -0.08019639719527
S           4.38220629508193    1.62992390949052   -0.09306954319824
C           5.95960682239342    0.89174702938191   -0.07933668752604
C           5.87523901843297   -0.49526595646869   -0.06981950433318
C           4.56658232069864   -0.95738297394292   -0.07082511365078
N           7.00906451719349    1.73329533699764   -0.08742546831888
N           8.17495219199979    1.19702015983504   -0.04508752668638
C           9.23416219572849    2.03927876028786   -0.04548188422186
N           9.20704129072847    3.36945997022320   -0.04038398564293
C          10.59465951720599    1.58272062111118   -0.02984598706027
C          11.33401619311886    0.40249381032387   -0.02498363721677
N          12.64495913072317    0.44281355411435   -0.00331167433923
C          13.26316475002304    1.64225398967389    0.01223544200635
N          14.60574112233938    1.60936009040035    0.02653270208659
H          15.11999832578650    2.46891226576428    0.07165878464796
H          15.06857780621863    0.72046048327751    0.06490130696791
N          12.67903991406990    2.84240822622536    0.00673504809664
C          11.35698939310699    2.77714215022308   -0.01477000312780
N          10.46664499942790    3.79923586248853   -0.02198016996036
H          10.66245300155079    4.78841709366087   -0.00933710166446
H           6.75316450463186   -1.11510771937301   -0.06374212903305
H           4.28292220849161   -1.99517021194505   -0.06328655643268
H          10.87555423515072   -0.57671757685390   -0.03621470225574
