31
         -59.788398159404          0.000654195305
C           0.87389516569347   -0.47837206773664   -0.06304119340394
C           0.65305967721939    0.87265129538608   -0.06081752591997
C          -0.74903201421567    1.00385508478296   -0.01101826803026
N          -1.33510373295212   -0.17017204207657    0.01497676424317
N          -0.34779052835031   -1.07419371545887   -0.01664384073876
C          -0.62778209346528   -2.41790073774351   -0.00273535061657
S           0.62546123690581   -3.60579038222140   -0.05241205906092
C          -0.57052901491790   -4.88726155365131   -0.00124198784762
C          -1.85470399360686   -4.36520268721298    0.05027273542414
C          -1.88803629928436   -2.97543852495640    0.04936332728389
N          -0.09251125245264   -6.13614814394113   -0.01504349360083
N          -0.94931845810716   -7.09592938394749    0.02298010721606
C          -0.44239508680997   -8.35248703204803    0.01801452768769
N           0.83804057761855   -8.70562895484759   -0.00536424433571
C          -1.26887607580054   -9.52638191369278    0.04889460479761
C          -2.60956179284411   -9.89690676025896    0.08730770766573
N          -2.94721413580825  -11.16555929093235    0.11327127988943
C          -1.97478674772882  -12.09974750874975    0.10008564956669
N          -2.39075246444352  -13.37971284413099    0.10046716654764
H          -1.71092391336870  -14.11286922647126    0.17949924370967
H          -3.36961748752712  -13.56620924057314    0.21642161807562
N          -0.65872642398382  -11.88523466336161    0.06837099566830
C          -0.34157366482708  -10.59903851408454    0.04153245913327
N           0.89050353932926  -10.04018685603494    0.00855631801510
H           1.78227684238468  -10.50971661851603   -0.00337295689378
H           1.77524854807991   -1.05587754026257   -0.09244289847404
H           1.38045033628521    1.65677914901000   -0.09033760320407
H          -1.33519047082289    1.90071768486353    0.00605324382613
H          -2.71711067903741   -5.00554012317989    0.08640808477197
H          -2.77566734654037   -2.37143674359179    0.08476512698322
H          -3.41626224662145   -9.17685014436014    0.10000046162114
