28
         -53.669265947222          0.000438130626
C          -0.58845552088428    1.33319070009012   -0.11030919487193
C           0.73391979953192    1.33340114676264   -0.23700348707410
S           1.77134367233942   -0.07371609003403   -0.03898259613979
C           0.50266658900121   -1.29440656808062   -0.06437515553948
C          -0.79708774425733   -1.04718800710006    0.04634685543901
N          -1.37269370598125    0.21666480063027    0.18890403501082
C          -2.69221882569129    0.35017807319876    0.50509800546125
S          -3.72055758692521   -1.04320055152882    0.67385157688769
C          -5.09938817342539   -0.02058351373772    1.05341412498654
C          -4.72771851762351    1.31695074502032    1.04199923964592
C          -3.39222791206606    1.52694857427117    0.74374654507703
N          -6.25319850101990   -0.63534001955241    1.29874140944005
N          -7.27492155881850    0.11263624086878    1.56437186994515
C          -8.41897061261898   -0.57448778572243    1.81733583871674
C          -8.65638030515371   -1.99283275183397    1.86304464094444
C          -9.97192228759049   -2.11659349643890    2.16378930938692
N          -9.53137130340808    0.09206557654467    2.07686486467868
N         -10.47382875131067   -0.83838905367483    2.28640512975641
C         -11.73209492180953   -0.53677720252963    2.57391657167976
N         -12.82829995111765   -0.31765023671178    2.82216369958303
H          -1.13840580078891    2.24471964961449   -0.28041600088368
H           1.27028789655556    2.22811470521519   -0.49778169686813
H           0.87343039428940   -2.29543219442601   -0.19251886774128
H          -1.50655513185667   -1.86064388898634    0.01258688925734
H          -5.44316117498679    2.08932754153362    1.25857274737677
H          -2.94895763620389    2.50560196282651    0.72392187648494
H          -7.92946701005347   -2.75855719598497    1.69283206581351
H         -10.60585541813396   -2.96961116021553    2.30404970354861
