31
         -59.286236719130          0.000922033090
C           0.84830373270117   -0.44855449897334    0.19031687583741
C           0.77093764716889    0.95305581430743    0.15565472375353
C          -0.48863888782575    1.40442493892573   -0.09435340659360
S          -1.61351935373108    0.12463110595407   -0.29697701410507
C          -0.36178729248068   -1.06094149800150   -0.03690586707446
C          -0.65091021081574   -2.45249635059761   -0.07663432762396
S           0.58851802451795   -3.63492669451644    0.18955640772517
C          -0.55986587281618   -4.93454892509790   -0.03614006914225
C          -1.83108336680419   -4.43627272962401   -0.29777411225669
C          -1.87741894950020   -3.05182947404398   -0.31810053372388
N          -0.08484181084762   -6.17883078698125    0.07739202318163
N          -0.91680494671200   -7.14871067228012   -0.12838529662086
C          -0.38180360731852   -8.37660927255832    0.02140009633570
N          -1.12202641547983   -9.46186537586019   -0.20806668485968
C           0.94613087427067   -8.77943500843641    0.40687160983367
C           2.17998076743625   -8.24110285264749    0.75634142234308
N           3.19667586566926   -9.04072827834125    1.01924358792443
C           3.01904462597171  -10.35723126814165    0.94097020073114
N           1.91590827474082  -11.00771819768953    0.63165734010719
C           0.89138143822135  -10.19714701146875    0.37870713276965
N          -0.36891257592311  -10.52577027741728    0.00898701314590
N          -0.89786658860789  -11.79512422031044   -0.06056049202402
H           1.75163517812731   -1.00285469565135    0.37268646612107
H           1.61425206382378    1.60185745741418    0.31083391493958
H          -0.82885853654369    2.41772049190221   -0.17405825613800
H          -2.66576133956201   -5.09386020917845   -0.45988887383108
H          -2.76755979611677   -2.47583737235457   -0.50441140439221
H           2.35497101110418   -7.17590556382333    0.81944676901417
H           3.88715935641977  -10.96617255628141    1.15403730548415
H          -0.18657533955848  -12.45207152049975   -0.36769271493428
H          -1.71434396952891  -11.78922449772800   -0.66401383592623
