33
         -59.220469270820          0.000731315298
C          -1.31551401990346    0.06284081490450    0.07077362713435
N          -0.62660891530612    1.21966502884687    0.15903336335781
C           0.63456121565253    0.88610175011624    0.22343209912969
N           0.80310114371436   -0.45411245185710    0.18230128157744
H           1.66639017524478   -0.97178729511220    0.21333956800980
C          -0.44656933994924   -1.01580721667409    0.08187472332449
C          -0.68138970998487   -2.41827758755458    0.01069047816904
S           0.62525570968913   -3.56323617930003    0.09428961882600
C          -0.48692624153367   -4.90012158389361   -0.08220452134864
C          -1.79177408386169   -4.44303456673106   -0.18545901348024
C          -1.89767807069862   -3.05918107162568   -0.12883755829502
N           0.03506614157307   -6.13266828202777   -0.02584115203078
N          -0.75743006105635   -7.11328321935009   -0.30683724778708
C          -0.24245359988413   -8.34581440313174   -0.13637889468667
N          -0.95258949889667   -9.40390764454814   -0.52962913113875
C           0.99019006723054   -8.79179470695472    0.46621609380909
C           2.09895094462890   -8.18146777063612    1.04591982676267
C           3.09712506879857   -8.99637238690206    1.53315963587604
C           3.01088245862351  -10.39265193917283    1.46117438603685
C           1.92470722296777  -11.02209413173199    0.89622793132652
C           0.91758149159905  -10.20072186910103    0.40091499490500
N          -0.26744428306520  -10.48620690695945   -0.21221357598108
N          -0.76984720999164  -11.74895661550146   -0.45901466756366
H          -2.38421208052861    0.05998334340512    0.00707413119023
H           1.44660359943878    1.58093052242638    0.29947000062935
H          -2.61364033999947   -5.12781610018345   -0.28838514619660
H          -2.82674789405962   -2.52233325132569   -0.19212154915104
H           2.16114267748507   -7.10667078583169    1.10076047974241
H           3.97189866945959   -8.55402705961045    1.98616438205419
H           3.81805505770161  -10.98689129938150    1.86323901737555
H           1.84378636601572  -12.09631616591999    0.84647869815365
H          -0.30414544547151  -12.18036670106162   -1.25709572541820
H          -1.76103721563256  -11.65419226761828   -0.66349615431100
