39
         -68.365278408461          0.000428182700
C           0.38960791276748   -0.51749615189802   -1.84539243015175
C           0.10527399035624    0.81376862475912   -2.00152730826363
C          -1.25485909439378    0.92817442184790   -1.66080179628374
N          -1.76012792365379   -0.23721530732586   -1.32444956950745
N          -0.75871849263748   -1.11692721846363   -1.43699109220207
C          -0.95628314713676   -2.44817934745139   -1.15611517534093
S           0.33087002165977   -3.59700446892899   -1.29584701603768
C          -0.75135193888826   -4.88937355803742   -0.81151450504536
C          -2.02051089251887   -4.40184975114300   -0.55770319724388
C          -2.13538717377789   -3.02583228926012   -0.74898269718770
N          -0.20310031164269   -6.10854582663208   -0.70366884101203
N          -0.99810934979578   -7.09942199367867   -0.47866432644623
C          -0.40340126736040   -8.30101695266508   -0.30351557475825
C          -1.12489365107033   -9.46752893715345   -0.13798340192133
C           0.99316004651597   -8.67525648936652   -0.22525967070344
C           2.17925085486618   -7.95467892189515   -0.29067841327037
C           3.36842768629147   -8.63709531922003   -0.13038928075165
C           3.38619240515537  -10.00944697860897    0.11017072509572
C           2.21826959882066  -10.74532985729257    0.17608414408329
C           1.02271398241725  -10.06958081132654   -0.01316159005245
N          -0.28824383590726  -10.52969432786340    0.01508730373092
C          -0.70203194435601  -11.83673196274799    0.17386216788551
C          -0.10856018929640  -12.98125400682759   -0.27579800548342
C          -0.83065570096448  -14.14023718561926    0.08121387263198
C          -1.95760463986357  -13.86771116168267    0.78411862369279
S          -2.17161345116300  -12.18128461627168    1.04615318465559
H           1.29091958045224   -1.07805676380712   -1.98741503810461
H           0.76819102344162    1.59373512749714   -2.31312461041511
H          -1.86893948917275    1.80628842394156   -1.64981034302233
H          -2.81551287171797   -5.04981619308411   -0.23701254891932
H          -3.03143571792110   -2.45060324624054   -0.60739429396046
H          -2.18988593831671   -9.59763358206638   -0.14151342987080
H           2.15389323841945   -6.89016259004649   -0.45795313575605
H           4.30388488250590   -8.10006647779515   -0.17893548636822
H           4.33241316462278  -10.50962964692898    0.25353125383190
H           2.24424026377042  -11.80213819445955    0.39005927157541
H           0.78586908160279  -12.99551487927467   -0.87021696442381
H          -0.52282278833554  -15.13457357443043   -0.18719106046702
H          -2.68850792378032  -14.55128800855053    1.16651025578603
