36
         -62.302216422048          0.000647793590
C           1.49225990142117   -2.05469685429445   -0.24171090973850
O           1.60454846623395   -0.70632354924890   -0.64238151425387
C           2.39057406326288   -0.45196399357855   -1.70527006426491
S           2.53377334491954    1.20229072169299   -2.18875699045425
C           3.60772629612692    0.73877556409889   -3.50351734073211
C           3.80725436778760   -0.62585826653620   -3.51399564935263
C           3.12180633784226   -1.30057047730616   -2.49750518097549
N           4.08981042260618    1.73192201540191   -4.26849083978928
N           4.83936205527307    1.39401140275291   -5.26263235275907
C           5.34555437597865    2.41773442299450   -5.99139897829933
C           6.12290710131401    2.21223392576409   -7.11244450585604
C           5.25342092044173    3.85249793150846   -5.82114775749501
C           4.63759681160698    4.66306797015059   -4.87527898428598
C           4.78696395859473    6.03047166032924   -4.98975932139021
C           5.54899232387195    6.59032030609762   -6.01346803588891
C           6.16713112583554    5.80267495375696   -6.96586905137095
C           5.99734892873101    4.42988210856296   -6.87196058145992
N           6.50257472112389    3.40243385144757   -7.65816207165548
C           7.27696697713208    3.53063078967162   -8.79218922704339
C           7.22388572166374    4.49070769562740   -9.76156014491849
C           8.18573656300085    4.28981252066028  -10.77512520176952
C           8.94696183366240    3.18629482934743  -10.57360938327149
S           8.52281129942990    2.35708649172794   -9.12664119284953
H           0.81859946339802   -2.05371686819455    0.61274706047648
H           2.46410755763075   -2.46002986962681    0.05607615389193
H           1.07139137394471   -2.67135100995726   -1.04160006110457
H           4.43978192029990   -1.09730400292680   -4.24387995418780
H           3.16790846027347   -2.36560380822075   -2.35858707724647
H           6.41221027208455    1.28187646814512   -7.56170713585935
H           4.06682226763639    4.21802168315929   -4.07651361518849
H           4.31691495708767    6.68211970757727   -4.26831395066436
H           5.66394923012408    7.66308264584535   -6.06228712203861
H           6.77613502192185    6.24708397044248   -7.73739339777841
H           6.50380373651164    5.28728149912292   -9.77245784087624
H           8.29409319406313    4.94023928306295  -11.62410800070946
H           9.73468462716323    2.79521428094148  -11.18578977884246
