36
         -69.192056845402          0.000693429435
C           0.35681996438292   -0.59848185436775   -1.86973841312260
C           0.17009275770053    0.77470197979877   -2.09299127338712
C          -1.13183683550641    1.15443405164223   -1.97696785761158
S          -2.16353323846356   -0.15938267494275   -1.59135962815573
C          -0.81275006567900   -1.26199124378760   -1.58299843179778
C          -0.99929845648385   -2.64383196167001   -1.30821249704767
S           0.33310058642941   -3.75134633900806   -1.30600135918249
C          -0.73448048823280   -5.08283154696741   -0.92125359767513
C          -2.05096038509291   -4.64768719139996   -0.80514177347649
C          -2.19376505010529   -3.28809372730873   -1.02015988415064
N          -0.17168408321291   -6.28492660491694   -0.77646783104834
N          -0.96353994346633   -7.27797211915770   -0.52792631909488
C          -0.33733951425561   -8.46051896115175   -0.35453351243781
N          -1.05056240447584   -9.55399997675755   -0.12181952980604
C           1.06785624047937   -8.79265395656215   -0.35566964844907
C           2.31028028056820   -8.19262369010078   -0.52143927785963
N           3.40819933028977   -8.92110793127011   -0.43598524967641
C           3.29646656605044  -10.22219115294608   -0.18944119753064
N           2.19168977481805  -10.91985785407462   -0.01077377269870
C           1.09045389641328  -10.18535562539263   -0.09910445843215
N          -0.20733037785406  -10.58375661366548    0.03052702168395
C          -0.68794441482509  -11.84791878900135    0.28548256540945
C          -0.06801675116210  -13.05640359462019    0.50064604089033
N          -1.01121113223864  -14.00538873152056    0.70936412025001
C          -2.16665984825589  -13.40642348623089    0.62656939830587
N          -2.03187323942541  -12.08314829079201    0.36815382759011
H          -2.73570932230048  -11.37109346284619    0.25319467108161
H           1.30828514145038   -1.09685284411002   -1.91426066582102
H           0.96733288059007    1.45543663159506   -2.33024095294901
H          -1.55218156698985    2.13322115730747   -2.09536407007077
H          -2.84554574545681   -5.33146027024344   -0.56812482432653
H          -3.13020571118842   -2.75977388365058   -0.97466197942982
H           2.42689098436925   -7.13669570637719   -0.72230402358022
H           4.22345252055617  -10.77597865739730   -0.12735752432243
H           0.97876994221826  -13.27534895207477    0.51370534470035
H          -3.11530229164417  -13.88884612603024    0.74545656322941
