38
         -68.162178560076          0.000623758122
C           0.29408063146651   -0.57789134723486   -1.89983002947188
C           0.07887561584436    0.79531744863941   -2.10245407862035
C          -1.21938662585344    1.15763573139579   -1.91373771453921
S          -2.21300349559908   -0.17389989914069   -1.48275604708083
C          -0.84949397932691   -1.25815258610990   -1.55569968164766
C          -1.00408264796959   -2.64467819772376   -1.27973407219174
S           0.34620980095465   -3.73241431250046   -1.34418597012650
C          -0.68118946955937   -5.08292957909916   -0.92149463093293
C          -1.99509767743210   -4.67029916969409   -0.74090523521582
C          -2.17022360242525   -3.30964121878794   -0.93964119451731
N          -0.09100829079941   -6.27816717476310   -0.79545392749461
N          -0.86723687396601   -7.28485226117865   -0.56030949828054
C          -0.24069595160440   -8.46482633191996   -0.37507293612818
N          -0.96941154854057   -9.55608648074319   -0.19000321257844
C           1.16403339287164   -8.79965419789061   -0.30821629292324
C           2.35100716454607   -8.08510281438848   -0.41942839815076
C           3.53311393225983   -8.78162776672347   -0.28716861784333
C           3.54180493226497  -10.15814630727090   -0.04815138399601
C           2.37559033535350  -10.88560816962523    0.06682663257721
C           1.17997476083437  -10.18982992939339   -0.06614632197167
N          -0.14085927293319  -10.58557882005209   -0.00827769811255
C          -0.68897828726909  -11.83137397340406    0.19416097585211
C          -2.02967362614422  -12.10829564152825    0.19912405395757
C          -2.29628455935628  -13.47056895622856    0.43535313498842
C          -1.17123322712781  -14.20967231737765    0.60712262135058
S           0.25758755594478  -13.25683874286716    0.48434010413874
H           1.24791573655318   -1.06399733478700   -1.99968786737892
H           0.85454217091587    1.48751319130214   -2.37720168479147
H          -1.65839520952679    2.13152124412529   -2.00101324713406
H          -2.76647049113273   -5.36785106623544   -0.46973648742612
H          -3.11287606597510   -2.79817591248232   -0.84727408659727
H           2.32888893115653   -7.02358389524430   -0.60486050587635
H           4.47446360834525   -8.25901985962768   -0.36879804347595
H           4.48870062528630  -10.66771694921093    0.05032560888059
H           2.40334377742075  -11.94669450909503    0.25278380582413
H          -2.77116249341909  -11.34954051804099    0.03690406874569
H          -3.28821757129268  -13.88262513864326    0.47515514589056
H          -1.07910200476199  -15.25967623645069    0.79883271230039
