34
         -62.963868553468          0.000665763556
C           0.86921568757542   -0.40786795710752   -0.05380532897938
C           0.63616356028017    0.94145085955157   -0.05651217968336
C          -0.76656308746920    1.06019524707137   -0.01276532420150
N          -1.34253086105456   -0.11930007312170    0.01440143194025
N          -0.34709440357267   -1.01437530582198   -0.01058160548070
C          -0.61510051803060   -2.36116958803684    0.00647768739208
S           0.64982472125570   -3.53844555499716   -0.02801372294401
C          -0.53466150083757   -4.83109613590721    0.01677228630509
C          -1.82331797263316   -4.32038433874897    0.05599857707797
C          -1.86956802423942   -2.93051331596330    0.05029547150801
N          -0.04804174590145   -6.07760302620725    0.00872744903281
N          -0.90518501852210   -7.03917836382957    0.03878422454097
C          -0.40511587550759   -8.29512347172987    0.03514549240338
N           0.87539793511605   -8.65729302404185    0.00679491717472
C          -1.23397606569001   -9.46598497208441    0.06754012882401
C          -2.57317892689812   -9.83984748764167    0.11156359354293
N          -2.90792137907262  -11.10959497839463    0.13653440432604
C          -1.93395788098587  -12.04221851826600    0.11739811580145
N          -2.35052028110326  -13.32442528963758    0.10532123315869
H          -1.67109176674476  -14.05309640331608    0.22484591366246
H          -3.32433722212278  -13.50624099767146    0.26311438049485
N          -0.61972333395205  -11.82581603087188    0.08385591439073
C          -0.30566366572954  -10.53609583696650    0.05618939527379
N           0.93114024953485   -9.98737555627680    0.01956133361486
C           2.18092471661366  -10.68815622479991   -0.00590418615897
H           1.77531717125804   -0.97807995140600   -0.07825687025888
H           1.35660611220217    1.73211726783428   -0.08547564242593
H          -1.36089474446345    1.95182620379085   -0.00064122883756
H          -2.67971711991120   -4.96893260706328    0.08728510761020
H          -2.76294135030606   -2.33449718634328    0.07606929947875
H          -3.38206020625607   -9.12230222484659    0.13046007978040
H           1.96224446584644  -11.75361792119522    0.01790848810495
H           2.78425176763899  -10.40686270427123    0.85845110701341
H           2.73185656368268  -10.43679453168234   -0.91343994348251
