28
         -45.410962152549          0.000140365769
C           0.99685021516101   -0.19586182554377    0.04257533556525
C           2.47840276239380   -0.05978436748425    0.05245998055439
S           3.22802484412445    1.49620571077578    0.06196597917411
C           4.82094547964093    0.77289881628628    0.07006290142947
C           4.72997584709117   -0.60527836351713    0.06561792731236
C           3.41002962224699   -1.06460095458145    0.05568523049836
N           5.86645315567386    1.62083537362777    0.07732595300203
N           7.04249890152066    1.09267302040430    0.08419505427114
C           8.07897593345701    1.96707866284618    0.08852565307333
C           8.08464019154296    3.35543766422790    0.08449960797518
C           9.45919947197333    1.55771025724235    0.09679578320667
C          10.09785799991941    0.32253904789397    0.10374921326574
C          11.47676582029415    0.29888695901180    0.11049970033313
C          12.22541887661409    1.47744897981780    0.11045919132333
C          11.61494170828547    2.71510322123357    0.10380889093690
C          10.22792618798808    2.74246135222297    0.09707290403357
N           9.36112699615882    3.80703096197468    0.08959798655199
H           9.63604616076078    4.77592467611300    0.08773620073789
H           0.52527670882153    0.78295476993049    0.03510796378455
H           0.65841971783644   -0.74136546831150    0.92367969421837
H           0.67101796727120   -0.74914447579381   -0.83836452876045
H           5.60469717522039   -1.22974372947260    0.06933323928418
H           3.14027642972227   -2.10669486404388    0.05081035435908
H           7.24415713028617    4.02188652676386    0.07807896700044
H           9.51705344897667   -0.58602783458868    0.10374136568451
H          11.99572467077970   -0.64827758172635    0.11592484601820
H          13.30363474210150    1.41741308286264    0.11571473562363
H          12.19282183413726    3.62770038182804    0.10374986954264
