41
         -71.798538207156          0.000763381819
C          -1.15285470023114    1.68104539989953   -1.66702690256612
C           0.11299090462749    1.72892779116992   -2.06595401221004
S           1.19670201963203    0.34076731818027   -2.15513406822493
C          -0.03840783160958   -0.91324432740263   -2.01968989173780
C          -1.28890558081110   -0.70771942674378   -1.62576960702599
N          -1.83475794046281    0.52754626550561   -1.27700947455566
C          -3.07602642334628    0.60965618161528   -0.70505577747949
S          -4.07676361583943   -0.80442143345479   -0.52518637460411
C          -5.35609017099836    0.15240593463744    0.20935774375249
C          -4.97600976764135    1.47937216613120    0.29572017739085
C          -3.70344654733419    1.73619844671059   -0.20463578348382
N          -6.44364278220531   -0.52118605262554    0.59065944192810
N          -7.44110459021027    0.16011299212831    1.05548406511728
C          -8.50165513301922   -0.57581431338760    1.46778016398246
C          -9.67784348107790    0.00159076696157    1.90135594006480
C          -8.68828904663977   -2.00601952011614    1.58223317346261
C          -7.87171171325013   -3.10102669851933    1.32436422168281
C          -8.36971419317716   -4.36240728040056    1.57877784639845
C          -9.65257710419571   -4.54366049449890    2.09447688300439
C         -10.48119314665288   -3.47066610260473    2.35811202916282
C          -9.99223289986108   -2.20218338120023    2.08426156821943
N         -10.57943764601908   -0.95967773722669    2.26144956000340
C         -11.85987141723564   -0.71192343722294    2.71609583761082
C         -13.04587584769902   -1.39111679531620    2.57625470167655
N         -14.03834510400534   -0.71816207157192    3.21083783033991
C         -13.49121411730032    0.34299367452307    3.72513860104822
N         -12.16103735305467    0.40450971041680    3.45728317034999
H         -11.50851957882376    1.11332745396174    3.74911044613521
H          -1.74748356593059    2.58074488637925   -1.67160866774626
H           0.56617974926024    2.64843525702995   -2.38914460070696
H           0.30986269377024   -1.89089074494612   -2.29975339293573
H          -1.98222769158661   -1.53447631553998   -1.57470784079199
H          -5.62395492644824    2.21903834428286    0.72999711773390
H          -3.25386663445718    2.71242359492058   -0.17692102770911
H          -9.92614627010242    1.04514906392441    1.92954874446624
H          -6.87660293393049   -2.95131558418383    0.93774753999703
H          -7.75498119432062   -5.22878377169473    1.38426166103601
H         -10.00497882445877   -5.54448259471785    2.29570118392543
H         -11.46524479664940   -3.61562895149079    2.77481594928431
H         -13.24695970192223   -2.29774622411799    2.04503715792157
H         -14.00972109477639    1.09131801059606    4.28880466608119
