32
         -55.070960454139          0.000208472340
H           1.02956527034807   -0.35303831038985   -0.80169727333317
C           2.09180855433511   -0.28140652963497   -0.67482518768460
S           2.83914719055862    1.26001998278266   -0.69148474882902
C           4.40888008938299    0.52862771978285   -0.45235187887213
C           4.30358643602462   -0.84612070479508   -0.36610239506596
C           2.98528711842736   -1.29754144382785   -0.49225044443698
N           5.45808892858254    1.36979817797232   -0.36832322916873
N           6.62415507821786    0.83499551011135   -0.25039199266582
C           7.66020923962602    1.69937172403597   -0.14230793830798
C           8.97170391900109    1.27485139923230   -0.06434541504571
C           7.69855192753754    3.14519805796291   -0.07798513677009
C           6.71548564407924    4.12714589937674   -0.08504499733302
C           7.10763610283496    5.44502236035826    0.03618377848291
C           8.45042803067998    5.78833632546976    0.18079955395852
C           9.44397881634521    4.82781277348490    0.18665568643687
C           9.05785573989248    3.50479320610010    0.03662326778527
N           9.81504759904522    2.33979958035353    0.02312296838789
C          11.19066219109549    2.24623080993910    0.08268522394674
C          12.12796078870383    3.08547215049640   -0.44761342100227
C          13.44708869386648    2.65790630139177   -0.18386572459669
C          13.49891477302590    1.50612047746853    0.52956714453954
S          11.93346646967015    0.90720508147090    0.91659583595949
H           5.16368585550727   -1.47220282165161   -0.21411214555239
H           2.69957140819776   -2.33399325796941   -0.45233854045809
H           9.34931091218303    0.27069299626342   -0.08393662021385
H           5.67824859726473    3.84919501959750   -0.17798598596149
H           6.36300844916351    6.22695255852214    0.03187957195597
H           8.72178875894976    6.82724364544604    0.29574591733083
H          10.47727261651277    5.10427554134675    0.32567225457899
H          11.88816029523315    3.95246624680254   -1.03457563206239
H          14.31897849986253    3.18605655382566   -0.52500647260573
H          14.36099600584678    0.95895296867418    0.85395397660185
