27
         -49.665270337162          0.000731145389
C           0.95454254857279   -0.08166758279807   -0.12440794591485
C           2.43620034589379    0.04080559722487   -0.11406520292034
S           3.20315430737853    1.58255696254513   -0.12451353741121
C           4.78565676221566    0.83769991080875   -0.10249464150008
C           4.67598040662534   -0.54399390620968   -0.08869370854232
C           3.35365628943798   -0.98297574489813   -0.09558480691802
N           5.83763867306453    1.66800026041191   -0.10098306213904
N           7.00577758416992    1.13097273577753   -0.08138627108468
C           8.06073013554488    1.98359267120371   -0.07142155728720
N           8.02884732612491    3.31020933573471   -0.05858054247250
C           9.42324029011843    1.53047465290456   -0.06182966665364
C          10.16374735813819    0.35283731995038   -0.05883375875172
N          11.47634351817336    0.39383382258963   -0.03951835006230
C          12.09027480358638    1.59399717535996   -0.02529839292391
N          13.43700028634820    1.56360153215867   -0.03930840571147
H          13.94152225133718    2.42253630782537    0.07866111100538
H          13.89450753335772    0.67763205400976    0.07147218361934
N          11.50689483079845    2.79298127786460   -0.02112918038151
C          10.18313262378697    2.72774348106386   -0.04203670392548
N           9.29318885784487    3.74620712687176   -0.04137739822612
H           9.48471811485296    4.73543003394240   -0.02764498597651
H           0.49117209528235    0.90063447398544   -0.13996105553323
H           0.61187623578415   -0.61861723264897    0.76004656954494
H           0.62588492298425   -0.64005056409845   -1.00084172079765
H           5.54296637895825   -1.17914262397049   -0.07479873915132
H           3.06629506010524   -2.02008047784776   -0.08706420086657
H           9.70631045951466   -0.62700859976142   -0.06886602901799
