25
         -46.191035128215          0.000791905592
C           0.84807833082146   -0.40280704872403   -0.03079081280202
C           0.61465132525241    0.94635730621516   -0.03386925070911
C          -0.78831985896891    1.06457852741352   -0.00427799794801
N          -1.36400767270037   -0.11505617347683    0.01537676269846
N          -0.36821545352002   -1.00965454500731   -0.00077457579759
C          -0.63522090115131   -2.35708831724117    0.01248137346789
S           0.63574420692200   -3.52816119218056   -0.00773663868110
C          -0.54281015272603   -4.82541115475702    0.02313279130773
C          -1.83237564718091   -4.32394372752574    0.04757658031071
C          -1.88573535314776   -2.93296909663622    0.04162961402834
N          -0.05282760216986   -6.07654014343543    0.01856012898223
N          -0.90682845301843   -7.03582456036044    0.03875840903149
C          -0.36556755904632   -8.28428888137112    0.03269202952961
C           0.99733260597311   -8.70554066222033    0.00944752662478
C           0.93317563096863  -10.06951390644798    0.01418182323790
N          -1.17494192137303   -9.34446576865578    0.05005323393468
N          -0.38279292420808  -10.39827252747651    0.03858243435503
H          -0.78555865264030  -11.32276413701627    0.04803373849360
H           1.75432091621111   -0.97297265829936   -0.04699292071792
H           1.33528193978378    1.73709187073303   -0.05431002458981
H          -1.38302659079965    1.95587807734094    0.00318409859027
H          -2.68370742247575   -4.97950152340228    0.06857560761308
H          -2.78271550032928   -2.34225999627986    0.05720604806034
H           1.85673196967335   -8.06982154908817   -0.00749499096007
H           1.69987473985012  -10.81800821210034    0.00238501193934
