26
         -51.077027099794          0.000721562376
C           0.87131453952054   -0.40855240742450   -0.02062842924131
C           0.57833426778893    0.96846827262401   -0.02364628303671
C          -0.78294271912790    1.06275945787416   -0.00037899757325
O          -1.34791471527245   -0.15143502406333    0.01692170222996
C          -0.34349536311633   -1.06021947525258    0.00459249339515
C          -0.65331967600596   -2.45226359148556    0.01795604059382
S           0.59866141895766   -3.64127457738646    0.00093945348253
C          -0.58776075458816   -4.92830234641449    0.03000112335531
C          -1.87958761915302   -4.41498633455915    0.05124014958791
C          -1.91341608817297   -3.02985052151168    0.04422675503848
N          -0.11500147132249   -6.17947617295208    0.02536468900584
N          -0.97366351329324   -7.13816349759420    0.05103908371881
C          -0.41830706450724   -8.38029321950394    0.03939331203313
C           0.96455307922047   -8.77114215026144   -0.00713634549852
C           0.94275225927481  -10.12657950924500   -0.00047315310463
N          -1.20253813732887   -9.44457238384299    0.07124686613844
N          -0.38312378915931  -10.50144563742872    0.04746276723453
C          -0.81988842677445  -11.75482649586225    0.06853634029464
N          -1.15193344565410  -12.85011305423001    0.08562291435360
H           1.83583528438120   -0.87306889415492   -0.03471608085524
H           1.27935645582257    1.77716251291383   -0.04077489913217
H          -1.44080958823490    1.90929470326597    0.00600425847139
H          -2.73740030121174   -5.06262394023085    0.07034924465359
H          -2.81194261994059   -2.43927014018814    0.05752080489798
H           1.80466275080628   -8.11033014177174   -0.03966401670282
H           1.72118523709081  -10.86304543131363   -0.02449979334052
