33
         -66.909424141795          0.000706400833
C          -0.80628651201819   -1.03134597590126   -0.13692214981518
C           0.40201902953832   -1.27535374063076   -0.62971568737115
S           1.53411876545294   -0.04712223995746   -1.18912622166582
C           0.70955365798709    1.34829622033446   -0.50350955374634
C          -0.52938350582476    1.34444141179734   -0.02406206485781
N          -1.37344231687815    0.23342038961454    0.02850726268863
C          -2.69217809820717    0.36859345012993    0.35036404974051
S          -3.68489896573579   -1.01983684526688    0.68720722154538
C          -5.08415469430339    0.00748287450198    0.97136770071181
C          -4.74499100545283    1.34393303138701    0.79601015129260
C          -3.42091886855173    1.54849910983973    0.44751535577894
N          -6.21087643924013   -0.61494496763401    1.29004317017746
N          -7.25650653430562    0.11386282039119    1.51900585543018
C          -8.39194375915893   -0.54884731594483    1.82282018073230
N          -8.58062349067681   -1.86653601739419    1.85618122898749
C          -9.61920308384776    0.11975365111839    2.15361725812063
C         -10.13542420087067    1.40431456914072    2.29960804092314
N         -11.39203389960287    1.58602134983623    2.63247925634530
C         -12.17730036311682    0.50729857664167    2.83376030747413
N         -13.44587999514038    0.76086060596200    3.19725578673117
H         -14.08746895005461   -0.00525570620190    3.28871911467712
H         -13.76415205067543    1.71155516895949    3.21044202179850
N         -11.81934792304095   -0.77257485972930    2.72349369391366
C         -10.54943258608101   -0.92832298986964    2.38796143542638
N          -9.84206915882623   -2.05468337656562    2.18814986808308
F         -10.31407417719465   -3.33538474191804    2.28284236563321
H          -1.43314261401692   -1.84814357387831    0.18830817460028
H           0.78227580828097   -2.27767791133450   -0.71129567995867
H           1.31453506746969    2.23713165020461   -0.48288623425280
H          -0.93685786822592    2.24679062026262    0.40328932464354
H          -5.47572367176997    2.12221132368300    0.92156674416154
H          -3.01524551449078    2.52384905974803    0.24920312167117
H          -9.53750208142056    2.29186437867367    2.14531890037903
