38
         -73.469956535698          0.000948565762
C           0.89472166683389   -0.35450028001557    0.18869499261082
C           0.57581031181516    1.01708343071972    0.21245211277705
C          -0.78629003434305    1.08663398831795    0.19653211768896
O          -1.32870840291986   -0.13851890932167    0.16483404844854
C          -0.30689148165452   -1.02870442082852    0.15974798820652
C          -0.59649195738149   -2.42533962327766    0.12852221658891
S           0.66562631995408   -3.60612523390760    0.12004884002794
C          -0.51010955357960   -4.90403150189542    0.08202577455505
C          -1.80547087669593   -4.39789170684223    0.07674504596722
C          -1.85099834080623   -3.01324426261604    0.10289335803073
N          -0.02970664131430   -6.15096505230514    0.06828082401756
N          -0.89744963763144   -7.10886805455860    0.04038464037597
C          -0.40208392131664   -8.36395651256971    0.03288203789483
N           0.87774650810268   -8.72504267255817    0.04475268140855
C          -1.23186481319768   -9.53538758426740    0.01419684204950
C          -2.57639753832062   -9.89485577481303    0.00319631388838
N          -2.92538243739436  -11.16011602209399   -0.00593502688611
C          -1.96064068708781  -12.10253875679330   -0.00495312852597
N          -2.38367729867677  -13.37882518549271   -0.04452402283649
H          -1.71088346120057  -14.11669612899132    0.05501180338556
H          -3.36634665834114  -13.56166371568405    0.04448664861881
N          -0.64242614518746  -11.89680221330440    0.01076219826165
C          -0.31647440192841  -10.61388970427412    0.01753902050980
N           0.93161246081051  -10.06511783469264    0.03534069214084
C           2.14645832891841  -10.70898207880844    0.04489662480779
C           2.50327305563731  -12.03641039958043    0.03520504051454
N           3.85470189724736  -12.13230709608373    0.05417282284944
C           4.31254688490450  -10.91109880549887    0.07434881544941
N           3.31260619724177   -9.99691110496171    0.07003424405357
H           3.35265969290585   -8.98974325741878    0.08091879084806
H           1.86769989336570   -0.80091940637574    0.19208458042934
H           1.26113794913915    1.83896742372524    0.23792788685621
H          -1.46060104015517    1.92005897683944    0.20485838564040
H          -2.65971187282689   -5.04996082066446    0.05509140175534
H          -2.75454426868659   -2.43018263026395    0.10408014344425
H          -3.37636605770920   -9.16740252983355    0.00463787973692
H           1.86703723651592  -12.89549189624622    0.01544345729204
H           5.35038912496341  -10.64770264276319    0.09259190711807
