32
         -55.898752696591          0.000827474015
H           0.96387399236555   -0.26982325232421   -0.74157721128626
C           2.02644092636070   -0.18739407526462   -0.62387086397326
S           2.75660830940935    1.36204394226626   -0.63837848864209
C           4.33650967883447    0.64672821311021   -0.41876324544319
C           4.24663671528162   -0.72988022408773   -0.33880964927708
C           2.93233042561963   -1.19482971048956   -0.45426400272058
N           5.37945366508625    1.49686316477832   -0.34620684998554
N           6.55058264538639    0.96856310424900   -0.24529792322111
C           7.58643956874031    1.83553369608593   -0.15954099642751
C           8.89709803463618    1.40913935238253   -0.08532565091994
C           7.62883801018079    3.28227152533846   -0.12719167945453
C           6.64517978181548    4.26243561667979   -0.16490301162621
C           7.03886745503499    5.58453561129612   -0.11237735510646
C           8.38495662933256    5.93183686800929   -0.02348847438733
C           9.37938122834317    4.97248784475405    0.01659294218566
C           8.98974084464928    3.64276144026167   -0.03588455075845
N           9.74575293166060    2.47406456282851   -0.01361072381588
C          11.11750125114459    2.36016915163463    0.05923760783906
C          11.91356071728725    1.24438382692125    0.09837367506097
C          13.24326709744731    1.72409923345772    0.16496724633822
C          13.16060122878973    3.07941654343414    0.16063114043980
O          11.87131549834490    3.47549875691049    0.09714079530045
H           5.11510884316578   -1.34742067826384   -0.19831561792100
H           2.65845248526539   -2.23472677753816   -0.41748139531978
H           9.26104943807721    0.40171186324580   -0.08523942994612
H           5.60721842344197    3.98048453905288   -0.23464949023522
H           6.29405574267940    6.36592474956802   -0.14075541098961
H           8.66084504319983    6.97518850493069    0.01552793791714
H          10.41622946480082    5.25627569102315    0.08665447627676
H          11.60433441312674    0.22087141187445    0.08384142085171
H          14.13368614117369    1.13215979935782    0.20886646745100
H          13.90309336931862    3.85027570451683    0.19774831179694
