26
         -51.075908117943          0.000601708638
N           1.18667639332082   -0.30168136586299   -0.15620347337342
C           2.32547628225229   -0.15417739579017   -0.13929846493297
C           3.71129532930929    0.00870222429667   -0.11848228771519
S           4.43252866597407    1.58284653805511   -0.12427307152305
C           6.02086088146599    0.86945141730737   -0.08976151824466
C           5.95976423955910   -0.51682134442820   -0.07508525544044
C           4.65758512990387   -0.99986258178714   -0.09122486792656
N           7.06054936127566    1.72694130289630   -0.08057482840528
N           8.23546568459698    1.20639818054837   -0.05579341488075
C           9.25495552332251    2.09918114524251   -0.04520904678918
C           9.23304965906945    3.52986099203318   -0.05792670139321
C          10.54431973215482    3.89286928704604   -0.03653440847691
N          10.51320017258716    1.65753839680199   -0.01798987813999
N          11.27584123419362    2.73641878492132   -0.01292228375470
C          12.64960687849448    2.63534139161860    0.01433749022926
C          13.45958583264192    1.53323322711129    0.03792207700377
C          14.77967097370382    2.04102352034450    0.06021172098162
C          14.66984326882792    3.39671797980502    0.04859659226848
O          13.37430037841836    3.77055744388855    0.02057602263816
H           6.84917527396993   -1.11958990234273   -0.05326934044291
H           4.39071244864739   -2.04207102131754   -0.08370604596846
H           8.36210668249627    4.14978625530738   -0.07956230957497
H          11.02623031736506    4.84924199980565   -0.03570519751685
H          13.13782249835826    0.51403584033475    0.03874223023663
H          15.68456094748094    1.47029601099983    0.08193154904384
H          15.40029621060992    4.18018167316439    0.05749471209766
