33
         -58.740121298936          0.000639631765
C           0.80873257759152   -0.39345066469334    0.22206245395895
C           0.69319365531934    1.00676182320114    0.20822909892917
C          -0.57320864332365    1.42767019747623   -0.05584215277932
S          -1.65900051916248    0.11890878042133   -0.29472169760994
C          -0.37866491252642   -1.03557312573408   -0.03312664610978
C          -0.63203975222310   -2.43390418927037   -0.09661562983763
S           0.63648749058355   -3.59107301645901    0.16156157638002
C          -0.47781885762001   -4.91553430561545   -0.08630088147842
C          -1.75708936664469   -4.44569114421227   -0.34951242880721
C          -1.83884553893611   -3.06067205243583   -0.35355779144818
N           0.01897792688523   -6.15483080608492    0.03412413805493
N          -0.79844339871138   -7.12899497434478   -0.20052895039368
C          -0.28650902832304   -8.36350505185368   -0.03268030265178
N          -1.05214927954169   -9.42229404224419   -0.30022733595748
C           1.00816320060893   -8.80968672131635    0.42224159566514
C           2.19205852586629   -8.19920387298381    0.82730142114830
C           3.23738935038021   -9.01462356405879    1.20228426417247
C           3.12674851898300  -10.41099635329752    1.18670623034911
C           1.96780158128834  -11.04038741667703    0.79126070161324
C           0.91246593580114  -10.21868939638776    0.40988350887103
N          -0.34536227451972  -10.50438910032258   -0.03555123808328
N          -0.89239202695286  -11.76599726086261   -0.16874721669860
H           1.72394232265333   -0.92505791672138    0.41107688227841
H           1.51592338198101    1.67562830177008    0.38666242441097
H          -0.94114035503216    2.43184437882254   -0.12608332962031
H          -2.57528547255357   -5.12063177178242   -0.52356540084579
H          -2.74311709122301   -2.50607044767477   -0.53720237388481
H           2.27217182659858   -7.12436571537347    0.83872274511103
H           4.17002581103420   -8.57249210384708    1.51997923325122
H           3.97424889878411  -11.00542338173463    1.49467649472999
H           1.87028271970368  -12.11442771817870    0.78340151581103
H          -0.53293230706432  -12.23629050486207   -0.99929831268198
H          -1.89965489970345  -11.65893686266229   -0.25761259584605
