27
         -49.657705042369          0.000545838028
N           1.17802454986279   -0.46568353575999   -1.06945798416256
C           2.52047663204231   -0.30265974744379   -0.92694344847460
S           3.22371290456867    1.27607353036109   -0.86473949464386
C           4.82138208196400    0.58044823468355   -0.59475958561361
C           4.74801757003724   -0.80410790499782   -0.56814687364921
C           3.46381395090248   -1.29924580726139   -0.75332487860598
N           5.82660078349679    1.44141772073905   -0.45655356232030
N           7.01212823265142    0.96049801240798   -0.26713523432240
C           7.97199187592400    1.90705776892176   -0.13426703255597
N           9.23163775390119    1.55293817304902    0.07110868519682
C           7.87607169861877    3.34629429555636   -0.17703499469961
C           6.94337181253504    4.36048828744090   -0.34339470489970
N           7.32932941066056    5.62449140005637   -0.30631117122273
C           8.61550244238514    5.89429472944969   -0.10766012108011
N           9.60666154472073    5.04291077027147    0.06488810059786
C           9.21511278043267    3.77156865926933    0.02610116661615
N           9.97172019839865    2.66099621281312    0.16751885549584
C          11.38659781099805    2.60275365666095    0.38805501297188
H           0.63841869830547    0.32469963289166   -1.37786010666035
H           0.84541003579362   -1.37386303058514   -1.34738856695520
H           5.62903607145097   -1.40097650990962   -0.41550031632283
H           3.21155252996311   -2.34484819152336   -0.76161282322182
H           5.89173766426056    4.16774205284996   -0.50528693571949
H           8.88089198868878    6.94312838547058   -0.08481393036093
H          11.74579409504515    3.62300039249153    0.50629172267387
H          11.88103223142697    2.12892310655131   -0.46169998961461
H          11.59793265096447    2.02032970554447    1.28543821155397
