35
         -59.069670966722          0.000476930018
C           1.14634805849788   -0.49792808517747   -1.09872958375399
C           2.61219355432329   -0.30041214855849   -0.95599614213216
S           3.27374289933971    1.28201868127699   -0.73679105430864
C           4.89687766596851    0.63213356851488   -0.65139253840144
C           4.88135691245020   -0.74126641561747   -0.79211394774199
C           3.59261028020328   -1.25626205687375   -0.96362877286855
N           5.89175703159979    1.52218871605278   -0.48548660820208
N           7.08709599294392    1.04844818042426   -0.38872426782925
C           8.07428816728084    1.96465011914682   -0.24364763939370
C           9.39870330529051    1.60316566547436   -0.10990749608244
C           8.04274137435736    3.41131824481583   -0.20009855554032
C           7.01569049878550    4.34275937430777   -0.28560276084604
C           7.34035923996262    5.68222419154898   -0.20760085510818
C           8.66111288655093    6.09480687565963   -0.04688056145877
C           9.69819919906754    5.18508302016494    0.03950291346432
C           9.37813768054985    3.83810152548268   -0.03941615198541
N          10.18923419170168    2.70904976108192    0.01377583844789
C          11.55860630523889    2.65982998307480    0.16090257288258
C          12.40378622267077    1.58238975764601    0.23274702537761
C          13.70312357021528    2.12358571602024    0.38011312482751
C          13.55595209078657    3.47333728266293    0.38726270348170
O          12.25443490584751    3.80886362572230    0.25435900437193
H           0.74587779201085    0.14581158355633   -1.88041490559839
H           0.63434585902611   -0.24729585527377   -0.16949859589586
H           0.93091736560151   -1.53438742689459   -1.34748837101002
H           5.78463937411450   -1.32266336173899   -0.77069331291956
H           3.38188848030398   -2.30392417069691   -1.09014884559846
H           9.81201696574484    0.61509494058240   -0.09656662703142
H           5.99763157774978    4.01092717033696   -0.40908940969656
H           6.56037119733235    6.42640252625367   -0.27150649834610
H           8.88234888185121    7.15030495830110    0.01146004076801
H          10.71511844181849    5.51842490218385    0.16316332592681
H          12.14498865677147    0.54585002573241    0.18861361732275
H          14.61721878630915    1.57398863645471    0.46799802771430
H          14.25733458773398    4.27777048835232    0.47564530716367
