35
         -58.246489490803          0.000509834947
C           0.44196033570567   -0.53539813123952   -1.80624345000021
C           0.28703578455452    0.83916127681337   -2.05689273554317
C          -1.00126622595169    1.25525087606117   -1.93220470420761
S          -2.06084116600430   -0.02736715855648   -1.50182040620128
C          -0.73770085915692   -1.16257335994581   -1.48962727154243
C          -0.95515768308452   -2.53458094789733   -1.18060354049524
S           0.36289713609858   -3.66612656423773   -1.13787957717564
C          -0.72521395056706   -4.96965428672023   -0.72314689722526
C          -2.03068621429607   -4.51429005514154   -0.63213963864597
C          -2.15452457047085   -3.15412172649022   -0.88765738705923
N          -0.17344636324883   -6.18327046334818   -0.55964795944134
N          -0.97727689056396   -7.14961052789006   -0.25805827310854
C          -0.40654888828759   -8.36342431524928   -0.10068772742137
C          -1.14442171275655   -9.49365724037365    0.22040655622910
C           0.96697570949600   -8.80160833867225   -0.20730375450995
C           2.16549725517589   -8.16039353670963   -0.49816065531833
C           3.32139586876099   -8.91455504134008   -0.51558021047881
C           3.30060762522602  -10.28392194387712   -0.25072510264962
C           2.12199415261011  -10.94196912981889    0.04067883970542
C           0.95733168565447  -10.18813494738747    0.06046675950672
N          -0.34017742445094  -10.57384713166710    0.31766545740793
C          -0.75363517377074  -11.91186928033919    0.62618265950415
H           1.37995422769931   -1.05891557791010   -1.85315212474289
H           1.09925505804248    1.49298426803380   -2.31982720072581
H          -1.40063247051759    2.24086100837747   -2.06502650737110
H          -2.84090866928605   -5.17645795997206   -0.38703643054712
H          -3.08622094281392   -2.61529562497366   -0.86684575494262
H          -2.20278227737622   -9.56542069572287    0.38191610439109
H           2.17503341098662   -7.10214456950023   -0.70311893062637
H           4.26517741293576   -8.43968172872158   -0.73946242966695
H           4.22584016235356  -10.84065405066733   -0.27432361278447
H           2.11182461103493  -12.00244985969345    0.24395626509991
H          -0.20417339808524  -12.28862195099084    1.49225940049770
H          -0.56499732204098  -12.57687032048968   -0.22097037068973
H          -1.81858823360326  -11.91968096373864    0.85156061077671
