29
         -60.498434681720          0.000276024164
C           0.82213401677735   -0.40681673927842    0.20321580426411
C           0.58859227610801    0.94031025526423    0.18789692668628
C          -0.80743298925297    1.05885260445988    0.01799405580941
N          -1.37732875097744   -0.11871409153097   -0.06375749803927
N          -0.38713296975794   -1.01510983800375    0.04884789647392
C          -0.65183080964682   -2.35776581973079    0.00018159012391
S           0.59795882770369   -3.53398684500659    0.17835584444803
C          -0.57534479171011   -4.82476173857011   -0.01380301052424
C          -1.85341175459910   -4.31286382941639   -0.19930254766737
C          -1.89716409206354   -2.92612061920336   -0.18929248091331
N          -0.10046182090128   -6.06976498206053    0.05997069366614
N          -0.93183329834668   -7.03832651114007   -0.12718861854068
C          -0.38958411862622   -8.26957437579125    0.01541038304576
N          -1.11455183309236   -9.34888403411435   -0.24198760190323
C           0.92568268319440   -8.66832716431722    0.45900814859488
C           2.12956177287315   -8.11628026226374    0.88606780828346
N           3.13375466981743   -8.90364202806654    1.21955297335161
C           2.97298880071907  -10.22134006295756    1.14589705445488
N           1.89647469368369  -10.88225713253827    0.76943246498783
C           0.89092869503406  -10.08881260935762    0.43109580697607
N          -0.35248520542918  -10.39081041008404    0.00399058274544
F          -0.86270518150454  -11.63306715975935   -0.19376496760500
H           1.72321856555134   -0.97619437471629    0.30683770603787
H           1.30211806512839    1.73182304453424    0.28245687752127
H          -1.39774803826362    1.95083094505751   -0.04430585954796
H          -2.69869697140196   -4.96338495016726   -0.33172984392968
H          -2.77965844851848   -2.32640201855416   -0.31364562864870
H           2.28676487175336   -7.04914768176701    0.95854490053191
H           3.82480313574906  -10.82271157092019    1.43150053931677
