29
         -49.934392503314          0.000831625403
N           1.25235142389292   -0.73592505720214   -1.47841844665666
C           2.35270059721745   -0.52417067577263   -1.22305442473618
C           3.68784785178661   -0.28473266862054   -0.90788346482737
S           4.45329380017799    1.22549275967619   -1.30374518121381
C           5.96021797094568    0.65452383606513   -0.63936082701187
C           5.83515941317732   -0.62887844546823   -0.12622785226424
C           4.55674334760928   -1.15263326157277   -0.27620169984448
N           6.97522001627143    1.53229842259523   -0.58255850753958
N           8.16265172479038    1.07295311373256   -0.40735100165268
C           9.14005173031876    1.97994764564156   -0.20974514618201
C          10.47162535286674    1.61305746063968   -0.06508868233881
C           9.10945028470800    3.42057519258541   -0.09328273297177
C           8.09234597644207    4.36604645960451   -0.14644218099948
C           8.42876191050895    5.69570777232456    0.00650468165593
C           9.75112052103687    6.08871767104341    0.20906011340332
C          10.77692749175688    5.16589558839846    0.26586170094798
C          10.44678119463404    3.82659892320883    0.11352123349295
N          11.24450736485719    2.70027125797738    0.12495490040725
C          12.66782661691905    2.66142181547261    0.31053108519520
H           6.65972411634616   -1.13133682242270    0.34590817061129
H           4.25744129496860   -2.13377152236184    0.04884467257427
H          10.88968023681148    0.62515625193699   -0.09182450735298
H           7.07250980979608    4.05521346494423   -0.30508425775184
H           7.65752209637910    6.45016641302609   -0.03103309792636
H           9.97861020433557    7.13790823715042    0.32427600135525
H          11.79544524641423    5.48897273566998    0.42261693119369
H          13.04958102045068    3.67314214541576    0.41822405094514
H          13.15185191842009    2.19167429796174   -0.54808827424667
H          12.92138946615775    2.09205698834979    1.20758674373501
