25
         -50.435364968333          0.000727376100
F           1.00153927718444   -0.24935354681138   -0.02179562907758
C           2.31822150544522   -0.05820940277139   -0.00160871421065
S           2.95680134909086    1.54012388197983   -0.00247065684935
C           4.57789840709407    0.87307389274503    0.02906404266162
C           4.55700101488536   -0.50849041257492    0.03838807419883
C           3.26461480381833   -1.04252637126006    0.02075396495870
N           5.58615287673592    1.76420268468599    0.03861200290454
N           6.78258481484824    1.29578076167296    0.06421638699440
C           7.75902206555343    2.23867423605277    0.07130749143812
C           7.67358064316419    3.66458115878662    0.05443386281489
C           8.96851051260649    4.08906707626881    0.07251746292820
N           9.03646030477018    1.85642272345571    0.09821698068513
N           9.75158540489534    2.97201759119825    0.09859679903589
C          11.12776544727611    2.91076615808317    0.12354194906454
C          12.11507450380203    3.86879030874632    0.12952144731591
N          13.32538933850877    3.26236654291820    0.15876323457400
C          13.09585483349177    1.97892688462196    0.16889043631267
N          11.77002311746840    1.70474313920707    0.14901142539165
H          11.29046529403248    0.81817261971625    0.15086643876085
H           5.46380088666351   -1.08461426023211    0.05724262673538
H           3.02705796776134   -2.09040712808506    0.02409901421934
H           6.77508448956021    4.24350752383730    0.03231536559571
H           9.39963369826881    5.06898246168557    0.06942811449770
H          12.03041259949614    4.93556109187381    0.11538980249119
H          13.85468484357846    1.22384038419955    0.19115807655832
