23
         -51.780946633228          0.000816535269
F           1.07902113142569   -0.41951423675872   -1.23828716143245
C           2.35939085141293   -0.21206833030358   -0.96625375126051
S           3.07036056161080    1.31660466728384   -1.29467490645547
C           4.59923185706538    0.71283632300327   -0.68274695534564
C           4.49618500997930   -0.60419576356680   -0.26254295681918
C           3.21655124192073   -1.13284096982525   -0.42353453386345
N           5.62624687055584    1.57501572838140   -0.68455512171856
N           6.76580935545849    1.13620579769258   -0.29134418126480
C           7.74663066888282    2.06594206825188   -0.20593135583913
N           9.00169259899603    1.69218163924235   -0.07336416782700
C           7.64752906664699    3.50975909736026   -0.14404683776966
C           6.69514646439662    4.52090403024962   -0.19542203035129
N           7.07333438440489    5.78149596234964   -0.09231912815328
C           8.36090004360560    6.05555014909415    0.07205651691199
N           9.36271339155992    5.19798937702799    0.15046862648977
C           8.98093846103108    3.93834041908325    0.03630165289588
N           9.75791044105893    2.80209038432719    0.06672970395813
C          11.07944305591071    2.75057006265175    0.20544895345032
N          12.21584249375240    2.72348275929155    0.32410202108751
H           5.34021290250082   -1.13251088449933    0.14201888875319
H           2.92022416209709   -2.13187307283711   -0.16196604275699
H           5.63941850732368    4.32563838685199   -0.32208626269219
H           8.62302647840299    7.10102640564739    0.15462903000329
