32
         -60.333162137657          0.000626072476
C          -1.27156995020013    0.06879177236543    0.05501479241447
N          -0.56464601471161    1.21493879127819    0.08482043496112
C           0.69499819094368    0.86622235014979    0.06496902892383
N           0.84488310368030   -0.47497953207309    0.02465411731969
H           1.70393744403241   -1.00059661533189    0.00036670400224
C          -0.41580013803770   -1.02223231436965    0.01621096880894
C          -0.67527849936340   -2.41967779854388   -0.02449536061605
S           0.61088591127423   -3.58399419756750   -0.02771515443702
C          -0.53639105637924   -4.90188033597607   -0.09858903526266
C          -1.84012687792389   -4.42108003244620   -0.11123706643375
C          -1.91505221765307   -3.03815103794233   -0.06703485180351
N          -0.03120593147487   -6.13941826167494   -0.09970133953576
N          -0.86499336226944   -7.11175161346030   -0.24007729912337
C          -0.33758000396195   -8.35193965719690   -0.12853104142686
N          -1.06477730829238   -9.39402247091755   -0.48031184257667
C           0.93948896284449   -8.78381272104028    0.41048885860754
C           2.06268630180719   -8.15533788285327    0.93525855195008
C           3.10284282044422   -8.95597465279812    1.36055660566506
C           3.03860121985269  -10.34945124251322    1.27701202112715
C           1.93063380005198  -10.99504507685206    0.76531157281715
C           0.88967737559094  -10.18662428701950    0.33690517236974
N          -0.34303184265831  -10.50027941686404   -0.21630184101797
C          -0.77671471031453  -11.72421816639727   -0.47140743283603
N          -1.11011340725255  -12.80177503888654   -0.67046677547160
H          -2.34218134412386    0.07909586350768    0.06470741021256
H           1.51749566984220    1.55265780816007    0.07858245517476
H          -2.67881116216679   -5.09246325040578   -0.14926886693315
H          -2.83476361345041   -2.48215645278386   -0.06907649579235
H           2.10771430439296   -7.07988492764016    0.99706950820291
H           3.99166329074885   -8.49951094722187    1.76964608598941
H           3.87605733193012  -10.93509173726478    1.62456869729337
H           1.86995171283156  -12.07043691744346    0.70224141744008
