29
         -55.874251785813          0.000570644400
C           0.93913857511551   -0.50883071057049   -0.03308277255761
C           0.88320741549269    0.89369951333445   -0.03588405842224
C          -0.39218922832079    1.36901659983916   -0.00115061518574
S          -1.55756735880668    0.11174306444948    0.03559851903244
C          -0.30278789632252   -1.09803156328954    0.00407534858569
C          -0.61812849564820   -2.48461961716045    0.01661318677934
S           0.62494237494480   -3.68933131619731   -0.01361511063689
C          -0.56941987297710   -4.96787361471532    0.01992750742486
C          -1.85784593785921   -4.44211369104343    0.05323507267979
C          -1.88137609535902   -3.05827865173201    0.05148251010498
N          -0.10032364659335   -6.21720550829831    0.00880161942476
N          -0.96308027274983   -7.17438778989556    0.03032573736228
C          -0.45816076207755   -8.43183557042018    0.01302848089088
N           0.81812346746827   -8.79297695864635   -0.03774253898680
C          -1.28955967256248   -9.60453684986249    0.04310500431172
C          -2.62891650196539   -9.96984838165528    0.09414312143073
N          -2.96370188647950  -11.24677907769198    0.10384664722348
C          -2.00064884748680  -12.16237535778681    0.06442495334371
N          -0.69809048372417  -11.96580761205457    0.01491675104650
C          -0.36339261451849  -10.68060324109118    0.00496987165576
N           0.86911275920883  -10.12628141443724   -0.04224451426411
H           1.75967814312777  -10.59768430691713   -0.07934792886572
H           1.84924716215837   -1.08066743710091   -0.05729819880877
H           1.75182393786679    1.52651449127256   -0.06278780232580
H          -0.72133542548662    2.38903577171152    0.00483468324853
H          -2.72248513857730   -5.08031396776015    0.07740305194821
H          -2.77862734109485   -2.46441077708704    0.07416193128658
H          -3.43397864445819   -9.24870876083970    0.12698419758884
H          -2.32636771231491  -13.19379726435385    0.07462534468476
