26
         -50.733068421482          0.000570504904
C           0.87459693112728   -0.14205071300396    0.16323562918238
C           2.34681440777265    0.03267758408900    0.08551592866904
S           3.05987322313837    1.59574225236862    0.06685771444583
C           4.66371595076680    0.90105732920660   -0.03344747318564
C           4.59976217193050   -0.48674306818302   -0.04786030228585
C           3.29665274938879   -0.96457187333064    0.01983743614217
N           5.69116750036676    1.75547746308008   -0.06840714719825
N           6.86998270806397    1.26100510020146   -0.19804434909846
C           7.88854441159148    2.14562086713361   -0.10049192212830
N           9.09542998950393    1.82130663287626   -0.51252764819102
C           7.90864639774866    3.45571948600849    0.51920659387383
C           7.05368141790707    4.35608770690850    1.14134049290857
N           7.52370980305260    5.51053509521584    1.57957556475276
C           8.81427323319993    5.77687519017923    1.42656060860515
N           9.73524603001422    5.01106437539683    0.86932401941005
C           9.25762443769127    3.86281780777289    0.42153696176164
N           9.93081370960780    2.84485324164143   -0.21241438367656
C          11.22277946139120    2.82215680668704   -0.52132240552719
N          12.33665271412349    2.81670333332415   -0.77992900853362
H           0.37343452931415    0.82111257051196    0.19851008952722
H           0.60777997058815   -0.71137854482319    1.05371053184134
H           0.51405267539603   -0.69587326126271   -0.70360700148189
H           5.48746900859347   -1.09002224115510   -0.10746107891212
H           3.03920262282215   -2.00917968328539    0.02116021330167
H           6.00003242276363    4.16047075370724    1.28498003556924
H           9.15510152213190    6.73112578873866    1.80299090023106
