31
         -64.317198263379          0.000957422179
C           0.88676506832312   -0.36025921433021   -0.07559259583770
C           0.57856835318409    1.01362856293342   -0.06398253496898
C          -0.78243601233321    1.09297673412939   -0.00881694584862
O          -1.33359073865639   -0.12792252774252    0.01454298670788
C          -0.31948532508354   -1.02575459051952   -0.02602773097376
C          -0.61671225899240   -2.42084323788149   -0.00986849639784
S           0.63757800834329   -3.60679498756067   -0.06258947309619
C          -0.54313925210369   -4.89773717930515   -0.00144923686826
C          -1.83631182475390   -4.38572433773861    0.05496086682337
C          -1.87492019708066   -3.00154370335935    0.05023896066552
N          -0.06628915504570   -6.14473559839149   -0.00915727927053
N          -0.92612613473818   -7.10445323886228    0.03600510654058
C          -0.43143897192764   -8.36100990715827    0.03798193929934
N           0.84813712888355   -8.72981604015748    0.00019754194636
C          -1.26466431571331   -9.52848990055642    0.08949447369576
C          -2.61046558128946   -9.88732784769488    0.14421012634386
N          -2.96259757256044  -11.14955440769566    0.18198167097229
C          -2.00325414088866  -12.09986812151259    0.16760068015855
N          -2.43132993701916  -13.37098845451550    0.20410970714918
H          -1.75904675919817  -14.11429117425620    0.21839497356840
H          -3.41614124052093  -13.55183037341986    0.26036584683139
N          -0.68510530680163  -11.89996149371844    0.11785825097375
C          -0.35664615066319  -10.62029860088921    0.07943225897796
N           0.85957677673497  -10.04318266069756    0.02503309286684
F           2.06106556989696  -10.69272581945741   -0.00333694390887
H           1.85554026612875   -0.81402709780421   -0.11437816647281
H           1.26972616729128    1.83046670296687   -0.09227900403766
H          -1.44966258287311    1.93175633099912    0.01776754266175
H          -2.69308393522067   -5.03345226444263    0.09815486846042
H          -2.77421843916545   -2.41319771092773    0.08930612937766
H          -3.40695150615647   -9.15637784043355    0.15829138366036
