31
         -64.373476879001          0.000845179438
F           0.86191919462579   -0.11662415847672   -0.16402895424594
C           2.18516301323514    0.02256034508616   -0.14562388867331
S           2.88958257163460    1.59227176936465   -0.16154369309355
C           4.48193724702093    0.85885971292974   -0.12263894701977
C           4.40152506058754   -0.52285565309928   -0.10038834626892
C           3.08927031974089   -1.00199971075958   -0.11372573892380
N           5.52261347494208    1.70601840652325   -0.11955135564591
N           6.69808806954736    1.18270457640109   -0.08673463028198
C           7.74307584861723    2.03885329744229   -0.07481968001708
N           7.70060015173512    3.36680851191198   -0.07037292730935
C           9.10933975694870    1.59771696601037   -0.05282376077811
C           9.85630228821060    0.42315374083080   -0.03841559110195
N          11.16774805005487    0.47003027963245   -0.01154767712899
C          11.77544308548027    1.67378294435419   -0.00046935077561
N          13.12004926709067    1.65922344826254   -0.00411606079421
H          13.61121344694513    2.52795024474347    0.10129644918748
H          13.59263110388118    0.78067358823383    0.10486209840173
N          11.18076768894471    2.86779403465482   -0.00700719068392
C           9.86161607127181    2.79558381750935   -0.03517717888443
N           8.95755094025044    3.82310641100712   -0.04643847084446
C           9.20572935193778    5.17785327820012   -0.03443464914587
C           8.32528878540273    6.22691670359706   -0.05005106022001
C           9.13295609805654    7.38694221050174   -0.02599840564359
C          10.42319567609018    6.95352756625918    0.00183230032386
O          10.47565643335617    5.60771932164833   -0.00282740363991
H           5.28212568540992   -1.13797565384997   -0.07601859148120
H           2.80727932618961   -2.03872912006817   -0.10069679432607
H           9.40196047297006   -0.55797804077314   -0.04531361805963
H           7.25900780736612    6.15622433468899   -0.07515822456535
H           8.79500565624395    8.40238652369572   -0.02923186460284
H          11.35814805621187    7.47584030353756    0.02557320624266
