30
         -60.394099211961          0.000587216497
N           1.32308243482838   -0.67385339812985    1.31954174433643
C           2.43423957659352   -0.45122006086158    1.13544792666152
C           3.78873850428869   -0.19925362891665    0.91180539877818
S           4.46311965315945    1.37618208555747    1.15583309219399
C           6.03946981597837    0.78312968647508    0.70745913634915
C           6.00529491475821   -0.56692429970582    0.37822685619208
C           4.73647736695148   -1.11677760795584    0.49142632305331
N           7.03548878214919    1.68333777782822    0.67243807281932
N           8.22775500733674    1.22635274065185    0.50510239678202
C           9.18695873114043    2.16389925177183    0.37304810538932
N          10.45941227835718    1.79849471844200    0.29615971183538
C           9.09168527513678    3.59991375319022    0.25492202934272
C           8.14062780675039    4.61416476133506    0.24244865126463
N           8.52227976246879    5.86958373954537    0.10111792819284
C           9.81632603364434    6.13546428828582   -0.03180539117678
N          10.81978649896473    5.27833667340943   -0.04221298877134
C          10.43524958204095    4.01754894014578    0.10442466137471
N          11.20678205272298    2.88656868571896    0.14079621197235
C          12.57625292777718    2.80135067886618    0.03959909474120
C          13.46979258187808    3.82477107270217   -0.11796901638239
C          14.79386054619381    3.34994984744073   -0.18257442247412
C          14.87715093636326    1.99679862732618   -0.07402194350356
S          13.33989065736920    1.24915071093974    0.11130287777217
H           6.88905781937608   -1.09245138206328    0.06527082219368
H           4.49327116371349   -2.14421638466324    0.28492625640909
H           7.08138902016045    4.42493031069314    0.34685129916023
H          10.08020501739755    7.17786042689904   -0.14730880906870
H          13.17519751519954    4.85544339528434   -0.18244968081208
H          15.64769780197832    3.99104441005848   -0.30482395446402
H          15.75692993531638    1.38523017972826   -0.09137239015970
