24
         -50.645202903156          0.000310702460
N           1.00470626963140   -0.16618515962525    0.26349730319469
C           2.33644844063595   -0.00937697113079    0.07298517178539
S           3.10973290365764    1.50474735961293    0.38489968422788
C           4.68180373920449    0.81061478052063   -0.01614083836060
C           4.54570530241520   -0.52731314376983   -0.36843965920995
C           3.23948879170238   -0.98663035238304   -0.31869514025423
N           5.72831454064230    1.62057856720227    0.08011892574339
N           6.89438855958138    1.14502388436134   -0.22223174424611
C           7.90148585283501    2.03586897090987   -0.06930419241621
N           9.14587190251764    1.69367450781976   -0.36709823070595
C           7.87871483908935    3.39907113732500    0.41007844595955
C           6.98621010696855    4.35918217177916    0.87252167470354
N           7.42427479243544    5.55393152198851    1.22459917006262
C           8.72403497475805    5.81540880101516    1.13042543753446
N           9.68222250604460    5.01144700164783    0.71462160828449
C           9.23822019683076    3.81363976835734    0.35988344053178
N           9.90376695521077    2.74180351364169   -0.10990084533854
F          11.24166352369144    2.64862595806344   -0.33667411633117
H           0.43501949023449    0.65159192834180    0.39378948309320
H           0.56033054145841   -0.98716420766384   -0.11095207042398
H           5.40295317414605   -1.11375156849300   -0.64577597156948
H           2.93920732147157   -1.99238352298385   -0.55249114025534
H           5.92498621901093    4.17206004094919    0.95968763748580
H           9.03377905582658    6.80679501251315    1.43140596650505
