27
         -49.893122901700          0.000375683494
F           1.02882693966655   -0.44466971012886   -0.80090755168573
C           2.33726494257366   -0.23813776519000   -0.66268064882255
S           2.94647390040386    1.36729115683377   -0.53006417678352
C           4.57173265338445    0.72154111430389   -0.39848464207354
C           4.57381578256745   -0.65764211520104   -0.46087815543122
C           3.29588315398597   -1.20758401779391   -0.61232651496999
N           5.56061120023262    1.62588383619259   -0.26883602704971
N           6.75861079948834    1.16577237961832   -0.16170050390827
C           7.72418187846782    2.10251862558093   -0.04322523872235
N           8.99172578549412    1.71423152347891    0.07418783283042
C           7.65579158406767    3.54413892391146   -0.01934027900580
C           6.64852458228333    4.50091971954706   -0.10002627695279
C           7.01894707568295    5.82655038196004   -0.03582491580168
C           8.35768947729605    6.21025472131684    0.10567159303245
C           9.37207559386132    5.28204371169570    0.18780297961934
C           9.00324625213947    3.94212592367276    0.12301255370468
N           9.74444559763895    2.79469410298538    0.17141265114863
C          11.16540550724410    2.68614833796481    0.31403883952626
H           5.48599612057628   -1.22158532149585   -0.39723831166916
H           3.07838887083220   -2.25738924433156   -0.68212359807026
H           5.61943583080610    4.19977118250356   -0.20883210742236
H           6.26257182644639    6.59482613913623   -0.09560065024269
H           8.59767641064050    7.26220783863409    0.15138491087787
H          10.40364155452262    5.57941042630204    0.29738802190929
H          11.67115749785204    3.22346590582399   -0.49053681228514
H          11.42366016898254    1.63073857887815    0.26739798768833
H          11.48685901286258    3.09805364380053    1.27304904055938
