23
         -47.560658602149          0.000720195742
H           1.08563458742141   -0.45703529826433   -1.19631600374283
C           2.12886845599533   -0.35373110509523   -0.96892425941445
S           2.93126302701316    1.10227806981846   -1.34549529260657
C           4.42947208925013    0.46285505468367   -0.70976890589493
C           4.25773552446243   -0.82998070946222   -0.23452716065404
C           2.94957612692767   -1.28480360045978   -0.38523321238556
N           5.49716853757739    1.27351384311671   -0.74668277097703
N           6.61633011632251    0.79450458328595   -0.34400870508833
C           7.64137805681993    1.67658215713798   -0.28177044993979
N           8.88177256700967    1.24953548871136   -0.17868395865422
C           7.60424726075432    3.12291126168227   -0.20590740064800
C           6.69355837883193    4.17180362188193   -0.23159943243577
N           7.12498133954041    5.41578164385855   -0.12893250744720
C           8.42557310679971    5.63482436563611    0.01232741173938
N           9.39292601056429    4.73679005636541    0.06495988272431
C           8.95769799888319    3.49447010319320   -0.05075930680324
N           9.68726606570559    2.32801721946745   -0.04586723638047
C          11.00755592831660    2.22092837638309    0.06085742971188
N          12.14459979189364    2.14546667485330    0.15366241562440
H           5.07029392231678   -1.38653826253995    0.19581174461477
H           2.61148228189737   -2.25901515685256   -0.08075849001760
H           5.62828832857600    4.02104378069688   -0.33800122734490
H           8.73193049712070    6.66799783190197    0.09607743601905
