29
         -53.107599756437          0.000829939728
N           0.96278726530134   -0.10872371526062   -0.26344990087694
C           2.31794922588938    0.00933630120804   -0.16703963292334
S           3.07739611652070    1.56412821420878   -0.14425995485462
C           4.67121875242376    0.81366498960949   -0.10895099358682
C           4.55415940870239   -0.56781994957024   -0.11345540646938
C           3.23978479343481   -1.01956926274713   -0.14623698152349
N           5.71586091180199    1.64008204027354   -0.09100477150825
N           6.89099508642770    1.10548608245392   -0.05116687894463
C           7.94108617953871    1.95870213882997   -0.03880535104671
N           7.91379783107643    3.28694440174464   -0.05323588672667
C           9.30334410879763    1.50633095386946   -0.00671924999894
C          10.04771697382334    0.33342189887212    0.01143080051962
N          11.36167309077968    0.37844531044733    0.03439445615502
C          11.96990630552629    1.58094195262184    0.04115985969887
N          13.31931556315666    1.55397352375115    0.11627220483534
H          13.82046788117395    2.40894440746644   -0.04345249170484
H          13.77494148735850    0.67135272381577   -0.02982430589022
N          11.38503739312492    2.77648591337382    0.01367114589743
C          10.05785128311639    2.70691159688737   -0.00517895665787
N           9.17558423814920    3.72920274315024   -0.03350494297893
C           9.47872103265188    5.12969149393312   -0.04001175574062
H           0.41387876469074    0.70752114519550   -0.05201333328394
H           0.56134724001301   -0.99289782509785    0.00337461686370
H           5.42434205279141   -1.19858482293730   -0.09332544871115
H           2.95466707602739   -2.05663611084121   -0.15731795331259
H           9.59407839316808   -0.64843286441293    0.00343622292737
H          10.56168349694684    5.23266216418000   -0.02219031446228
H           9.04039111204739    5.61176136121696    0.83527097943563
H           9.07013693553949    5.59680319375770   -0.93753577513077
