27
         -54.457697791012          0.000563864339
N           1.09563042340886   -0.20929437286031   -0.45381580734742
C           2.40343761054147    0.01866837426050   -0.17897491514658
S           3.27214057387899    1.29083624467613   -0.96239467324604
C           4.75685271376058    0.81581220923456   -0.13854066343267
C           4.52417588869347   -0.27618966711663    0.68923872265865
C           3.21158496413051   -0.72080964329816    0.67132293711353
N           5.82880057605297    1.56533125076211   -0.37256050671813
N           6.95490300862816    1.19737683196299    0.10835490258732
C           8.00584978762150    2.03602317521052    0.08067417481825
N           7.95315065456827    3.33200945028341    0.32524629645314
C           9.37644500374192    1.59356957133900    0.00706827534305
C          10.11367550508213    0.43774819439061   -0.21524418103543
N          11.42865343061688    0.47427648051766   -0.20936302009831
C          12.04296630084534    1.65129905408389    0.00769967612065
N          13.38517573247128    1.63435979069502    0.00392210549270
H          13.88586588306345    2.48993615189460    0.15650582115957
H          13.86205468457973    0.76789080147969   -0.16166081064318
N          11.45277562514385    2.83171156588284    0.22676453368842
C          10.13642677630621    2.76518271444419    0.21843200849240
N           9.24024142877272    3.78519442930157    0.42170479749824
C           9.52861986339688    5.04357907609953    0.71199141222431
N           9.79124707808935    6.13109371118067    0.95667412925126
H           0.57905355439918    0.49632495662152   -0.95031354406458
H           0.57681223962092   -0.80930274009968    0.16497153080691
H           5.31316704254489   -0.70419901063757    1.28159497295567
H           2.84274852786024   -1.55024356085568    1.24795196709423
H           9.65428512217695   -0.52493503945084   -0.39348014202650
