35
         -63.387660140945          0.000595422325
C           2.78927416884390   -1.50981198624967    1.05224615320402
O           3.17637191389705   -0.28875073517795    0.45693579708845
C           3.74541476416413   -0.35618062186780   -0.75762355897504
S           4.21325438101160    1.14046829638816   -1.48393664236210
C           4.81867991717394    0.28003596420670   -2.89588199385411
C           4.63612628974074   -1.08240988550615   -2.75482924944535
C           4.02818182101084   -1.44311492158658   -1.55054791317728
N           5.32160741926688    1.02534956719948   -3.88873842791891
N           5.82973461240306    0.39754489859452   -4.89539690717689
C           6.25981285289670    1.18777705221392   -5.90460262215663
N           6.90151265335602    0.64031151407458   -6.92658494880883
C           6.11284140889021    2.60991035343943   -6.12107244121980
C           5.53448211192845    3.66296582730436   -5.42058990064347
C           5.59448060090268    4.91827812458915   -5.98692846245302
C           6.21026017996722    5.13279227259662   -7.22361044579346
C           6.78681113900800    4.10336219597568   -7.93739747051018
C           6.73016185398864    2.83706640288496   -7.36834788125272
N           7.18954697226919    1.61004406723721   -7.79883306222088
C           7.88610519407828    1.29929498048825   -8.94278380788986
C           8.37695890582225    0.09089022827005   -9.35952054196172
C           9.00802528269754    0.34956217298765  -10.59856740609011
C           8.85527910373476    1.67875712036606  -10.83772718130089
O           8.17031107073874    2.26872592378673   -9.83252153702941
H           2.35977217596311   -1.24483366782076    2.01585755257052
H           3.65075344862244   -2.16702134588197    1.20112561899432
H           2.03982247626370   -2.02426550324329    0.44404403637011
H           4.93944596887998   -1.77069954044117   -3.52254852647412
H           3.80851105282181   -2.45945299062885   -1.27877784115325
H           5.06240804187731    3.48653815048874   -4.46772589931296
H           5.15689023900068    5.75895105933819   -5.46933940145879
H           6.23267301862779    6.13280011450876   -7.63120742196642
H           7.25736597650051    4.27232784572510   -8.89182757287267
H           8.28772636234442   -0.83732331997677   -8.83774035417292
H           9.50790233662249   -0.36139843978484  -11.22314105426442
H           9.16776428468461    2.30945882550043  -11.64502868431166
