26
         -50.989397445505          0.000546749957
F           1.10734485952654   -0.39473378304726   -0.94233445174324
C           2.41522720827303   -0.22358913547008   -0.76939422857860
S           3.07568062753871    1.36517148503700   -0.72401738188707
C           4.67153688204329    0.67606469657181   -0.48956476066138
C           4.62632478571996   -0.70434241300356   -0.45569918855724
C           3.33608779866306   -1.22004595207087   -0.61565706318636
N           5.68507125331701    1.55374966510872   -0.37726087198405
N           6.86701011648055    1.07081487139334   -0.22367505585213
C           7.86218192675494    1.98678386860673   -0.11335127463069
C           9.17953539798993    1.61872271357151    0.03990536143625
C           7.82958296901757    3.43907702822784   -0.12629535244312
C           6.81499783078728    4.38032863865145   -0.24824724896409
C           7.16110843212671    5.71782450979506   -0.21836894722150
C           8.48522622963677    6.12639218420623   -0.07106480581907
C           9.51123688091893    5.20730039146936    0.05254681114694
C           9.15979586385316    3.86967221679717    0.02230739609205
N           9.96974743594574    2.73750089859927    0.12211950591621
C          11.28293617919503    2.75132930966867    0.27003880563122
N          12.42123576408166    2.77596865823785    0.39787832035164
H           5.51314624794052   -1.29546236366668   -0.31790977222876
H           3.08320053950461   -2.26410918690406   -0.61969654318024
H           9.60382485404835    0.63493505085139    0.09319245016875
H           5.79181995355312    4.06159084466655   -0.36226664419566
H           6.38972090692316    6.46724313533401   -0.31157205784960
H           8.71596511468656    7.18061537173425   -0.05241533806477
H          10.53985394147328    5.51382729563468    0.16729233630283
