28
         -49.725631996996          0.000770398240
C           1.61638254755135   -0.78287306875549    1.02362051029734
O           2.45982793436180   -0.08610437324892    0.13036793418747
C           3.05932659726464   -0.80696851639778   -0.83152733941413
S           4.05404468049594    0.05552494656312   -1.94970585907777
C           4.41998645223293   -1.44283279915576   -2.80063906420235
C           3.78120515659080   -2.51228166440026   -2.20100484059089
C           3.01321378870579   -2.15706665003260   -1.09063118031781
N           5.22476549246561   -1.34537076302442   -3.86592045358883
N           5.48282531134821   -2.43031085808128   -4.50953180876023
C           6.29289594660012   -2.31261536414186   -5.58991479921575
N           6.86776052386397   -1.20780284711755   -6.05562903822200
C           6.64852035903282   -3.43281426503835   -6.41958685965563
C           6.36058809826542   -4.79430385888366   -6.43144062200144
C           6.91288600478031   -5.55904426923862   -7.43441049431580
C           7.73858933083854   -4.99677687637074   -8.41616413134620
C           8.03949699342988   -3.65323529224685   -8.42659171414613
C           7.48357112726499   -2.87737761386799   -7.41460581393840
N           7.56927889706550   -1.54728000134940   -7.13146871715132
H           8.08327923557134   -0.83896308116278   -7.63171306259443
H           1.21764421370174   -0.03026623219666    1.70077079415956
H           2.17597671435339   -1.53054124002613    1.59316511796171
H           0.79506789688786   -1.27064453744375    0.49064346575427
H           3.88568250795735   -3.51312052210152   -2.57884656670087
H           2.45110087943738   -2.86390896141660   -0.50759506456658
H           5.72410530285656   -5.22238433479399   -5.67368839449701
H           6.70962859404008   -6.61898945644148   -7.47314256684137
H           8.14772567663544   -5.63730238187821   -9.18350743484961
H           8.67541373640026   -3.21881511775041   -9.18282199636586
