26
         -51.537171594186          0.000303856129
N           1.45409884808779   -0.69758828648587   -1.45621815863589
C           2.55910045785196   -0.50066018628695   -1.21585246301554
C           3.90519963112815   -0.27449909308040   -0.92113254958888
S           4.63091319250161    1.27449262431674   -1.17616668347001
C           6.16234388066517    0.66201145058589   -0.61270888695707
C           6.07568028394461   -0.67435634827193   -0.24217493871988
C           4.80251610751832   -1.19900063783518   -0.41466093174429
N           7.17708275663936    1.54194251409710   -0.55343322723749
N           8.33959324386601    1.07163219063761   -0.27815867730149
C           9.31877982743986    1.99431740751749   -0.13108650823232
N          10.56191965561596    1.58024231409211    0.02549727483347
C           9.25509619163038    3.44229679938553   -0.06728214834040
C           8.25358560792043    4.40276391431623   -0.15468471856764
C           8.62594906497780    5.72572634440562   -0.03241146812917
C           9.95646340557754    6.09956254394746    0.17548602055376
C          10.96689717170304    5.16330710956885    0.26769966859572
C          10.58853863544594    3.83604432955290    0.14174285077370
N          11.33299850523208    2.66501554248238    0.18439694020008
C          12.64644433712327    2.60232465505388    0.35121811370657
N          13.78169882666506    2.60009672678872    0.49864152303164
H           6.92560529104805   -1.20983056822710    0.14002432622703
H           4.52208769850873   -2.21304768627088   -0.19037651256294
H           7.22862449091045    4.11119988475344   -0.31572200623875
H           7.87332468035315    6.49664709301140   -0.09806905268360
H          10.19870922415125    7.14721153785334    0.26757412708637
H          11.99616898351167    5.44198782406471    0.43061808641227
