26
         -50.712301876915          0.000790356425
C           0.85164994076318   -0.45205183288946   -0.04692216883710
C           0.62383027617584    0.89668422988541   -0.04422778033395
C          -0.78027932611029    1.02107101969068    0.00437657056452
N          -1.36051931988830   -0.15468542930613    0.02798780809662
N          -0.36850895304376   -1.05478247534234   -0.00265969471381
C          -0.64146513468952   -2.39798623552704    0.01083813462082
S           0.61976518458372   -3.57577853382561   -0.02290754961511
C          -0.56878113985987   -4.86506554904702    0.01642137114986
C          -1.85783386105017   -4.35312417799301    0.05393727082707
C          -1.89953046983509   -2.96483706997452    0.05112498837737
N          -0.08959521212419   -6.11420427070771    0.00938226666148
N          -0.94350731356259   -7.07583784574893    0.02906944245591
C          -0.38676013143618   -8.31771592750698    0.02888413998211
C           0.99598491802055   -8.71035164283547    0.02880941384718
C           0.97172255019263  -10.06611437892203    0.03367563373376
N          -1.17320999672102   -9.38094722471847    0.03354922414850
N          -0.35541406759821  -10.43836217827701    0.03600184199599
C          -0.79634120854361  -11.69102850511909    0.04013918477112
N          -1.13569327253648  -12.78408219550682    0.04371933021610
H           1.75567189104204   -1.02546239344450   -0.07615223414729
H           1.34687119758825    1.68478454490715   -0.07232659263039
H          -1.37008622411121    1.91544519039961    0.02158471911591
H          -2.71351254771691   -5.00301407627100    0.08207210602496
H          -2.79062540274319   -2.36549353469766    0.07650420070724
H           1.83808419967460   -8.05124256297412    0.02616583267444
H           1.74924342352659  -10.80390694424500    0.03562254030200
