31
         -60.321314851611          0.000705167040
C           0.82004779194091   -0.32488969736481    0.14464184544776
C           0.50652231420898    1.04793117225638    0.11864324832863
C          -0.84845146771841    1.12121993320630   -0.02297748975070
O          -1.39115955837752   -0.10253555087717   -0.08598663102173
C          -0.37725757369842   -0.99536635002088    0.01584262710092
C          -0.66549614766997   -2.39203151796694   -0.02395139983300
S           0.59251681107242   -3.56711432268989    0.13481967307258
C          -0.56575782961828   -4.86915693705948   -0.03114866117281
C          -1.85256208906929   -4.37245473166950   -0.19374053160147
C          -1.90555237201659   -2.98652219901592   -0.18630155268678
N          -0.08419948985365   -6.11542694610210    0.05265749988844
N          -0.91531132778636   -7.08279017536994   -0.14525186023294
C          -0.39234546054312   -8.31877534375139    0.01134836733480
N          -1.15072159775679   -9.38295999106555   -0.24118497477794
C           0.91489690264625   -8.74658415348506    0.45590542999881
C           2.09065250776614   -8.11937325251461    0.86031481564264
C           3.15146227961372   -8.91912563546539    1.22641766063386
C           3.06731743268413  -10.31686812928101    1.20083488936004
C           1.91868768531830  -10.96713194733327    0.80728505831922
C           0.84952048350095  -10.15990095116992    0.43808751177582
N          -0.40868179777211  -10.42653295708627    0.01019964539000
F          -0.93049963502105  -11.67451480963045   -0.16861345554683
H           1.78694051232061   -0.77430291016610    0.24240078872967
H           1.19093775339583    1.86763632312452    0.19389471171914
H          -1.51696632636456    1.95690242487796   -0.08751368807954
H          -2.69496836259261   -5.03066574337729   -0.30547013376800
H          -2.80535663988542   -2.40809555641601   -0.29715760407731
H           2.15127134598726   -7.04362950717493    0.87821766868860
H           4.07652364498855   -8.46198605823418    1.54362805993206
H           3.92757446398613  -10.89792532957134    1.49742951171755
H           1.84457574631422  -12.04280914960587    0.78575896946759
