34
         -62.462852835231          0.000725684962
C          -0.66594525587760    1.40413652072605   -0.12749108876006
C           0.65544745867058    1.45819143095664   -0.25224605630639
S           1.74724665448794    0.09862206535682   -0.00084035832921
C           0.52986454776624   -1.17607903424009   -0.05454408302074
C          -0.77885430993805   -0.97976821975820    0.05048135806049
N          -1.39807436215257    0.26163075056537    0.20266962185828
C          -2.72263689121987    0.34983778738234    0.52598831233563
S          -3.71846082796547   -1.07342739434749    0.63976082644250
C          -5.11881510717297   -0.09894618141981    1.06313356842003
C          -4.77988068262011    1.24387264425963    1.10299947384729
C          -3.44680441143897    1.49730510894590    0.81095334645193
N          -6.25487239443547   -0.75868416876857    1.29183358113409
N          -7.29763133546869   -0.05466439732089    1.59050089474292
C          -8.41743688795776   -0.78384404826425    1.82820402065229
C          -8.62571423379203   -2.19763745560034    1.82707838027642
C          -9.94265187920134   -2.35553189093500    2.14066345543001
N          -9.55304806842638   -0.15392302736356    2.12625597027664
N         -10.46283660927089   -1.10696276719468    2.31182505292389
C         -11.75674660603250   -0.76255521862412    2.63404705948371
C         -12.89651416084784   -1.48710416839559    2.89144939439966
N         -13.91727568929778   -0.63549723880443    3.15782426900565
C         -13.42622154461525    0.56874589529767    3.06866062897204
N         -12.10964827820847    0.55260493238875    2.75077972917087
H         -11.45951887152844    1.31063714417276    2.61396469847427
H          -1.25868059901684    2.28231052497050   -0.33122543658070
H           1.15512556452679    2.36395039294090   -0.54548060355982
H           0.94222394874680   -2.15878610200468   -0.19594844553234
H          -1.45933630285207   -1.81709563175491    0.00168465731248
H          -5.50975240079447    1.99264095419008    1.35246352887896
H          -3.02277310817189    2.48486125062910    0.83377502772362
H          -7.88884293028499   -2.94494651434633    1.62189086292034
H         -10.55105228615258   -3.22914921535543    2.25637569002179
H         -13.04308643504424   -2.54723732126453    2.90214459899984
H         -13.98448570441171    1.46913259298220    3.22450806387440
