19
         -37.416434863197          0.000279959236
N           1.10173260992613   -0.36009116207652   -0.12127946597815
C           2.24224189991073   -0.22804540872069   -0.10881418358352
C           3.62989693939937   -0.07866121927394   -0.09362252677402
S           4.36195330238616    1.49040170568781   -0.09135830697756
C           5.94493511456223    0.76571690408613   -0.07136801000667
C           5.87493777984292   -0.61934404238587   -0.06696209598239
C           4.56885157652811   -1.09375963622111   -0.07957956163597
N           6.99099193875082    1.61845195896391   -0.06250888405198
N           8.16026649423262    1.09271072413948   -0.04958035962936
C           9.18958885909620    1.97932976053367   -0.04063490677306
C           9.18712770788555    3.40677876044316   -0.04513668831915
C          10.50873183608870    3.74902684511362   -0.03163171865767
N          10.44364782506580    1.52120701338993   -0.02535733530594
N          11.21237668793908    2.58827055042873   -0.02015149128214
H          12.21532469066508    2.47869875671537   -0.00860172131488
H           6.75988173386675   -1.22909374667870   -0.05499983107997
H           4.29543310597157   -2.13429664588628   -0.07882158503677
H           8.32571929055306    4.03992112079708   -0.05680406298235
H          10.99559060732916    4.70335776094418   -0.02928726462846
