32
         -59.046517807366          0.000442538766
C           0.88109961070627   -0.53126193318857   -0.11386796623023
C           0.82263056391582    0.87191652626504   -0.12280511096614
C          -0.45082550881746    1.34519037736398   -0.04654528017566
S          -1.61214166677474    0.08440900385083    0.03897889404312
C          -0.35667451954156   -1.12254797305081   -0.03003212427465
C          -0.66581340602678   -2.51091498193712    0.00284516309761
S           0.58933515048103   -3.70382442346584   -0.06796922922290
C          -0.58812252916602   -4.99528775819055    0.02063502246151
C          -1.87740271455435   -4.48613434860343    0.10032170843045
C          -1.91645921117849   -3.09941465805654    0.09054695012144
N          -0.09261185517253   -6.23796917638224    0.00572094970878
N          -0.92131107832720   -7.22382154034788    0.06018986772799
C          -0.31977238319054   -8.44210786082662    0.04923309244428
C           1.06847817909468   -8.77697537119896    0.00014509315528
C           1.09741510626890  -10.13864774241633    0.01681104585140
N          -1.05850001108523   -9.55076110550474    0.09207427384075
N          -0.19822713995415  -10.56225458855964    0.07195026965927
C          -0.65017271949218  -11.86278303328968    0.10620213027142
C          -0.00951889447026  -13.08000061264340    0.10340704997260
N          -0.93189860164713  -14.07103456218631    0.14875200388148
C          -2.09791543702341  -13.48896059563166    0.17854710189264
N          -1.98764770872436  -12.13898901754669    0.15457763204071
H          -2.70255369065009  -11.42858322921004    0.16809278066242
H           1.79126874766931   -1.10127860382179   -0.16608595866344
H           1.68930998929919    1.50531583719706   -0.18315943573478
H          -0.78246646214945    2.36428791413979   -0.03456906017429
H          -2.73306511694881   -5.13363023875846    0.16317617352419
H          -2.81951061119116   -2.51616476369580    0.14465649114991
H           1.88184093794724   -8.08435735452932   -0.03974059850625
H           1.90773781782638  -10.83791898830711   -0.00526599981647
H           1.03773400594733  -13.29898301069144    0.07241798109583
H          -3.03573884306965  -14.00436218677556    0.21721908873215
