32
         -59.238115875859          0.000650233779
C           0.87778813002506   -0.37828657209722    0.11290245867262
C           0.79638895566001    1.02430103571214    0.08554424930827
C          -0.47143628535635    1.47415405629586   -0.11306756063580
S          -1.60037997728442    0.19083531117948   -0.27418408738959
C          -0.33704801676261   -0.99272032668236   -0.06795560511895
C          -0.62881698085011   -2.38503470544398   -0.09749964235531
S           0.61666898923019   -3.57073681832427    0.13715643741070
C          -0.53877714575420   -4.86929777803810   -0.04945188522569
C          -1.81254676259685   -4.37063085784226   -0.27632031093553
C          -1.85876283019763   -2.98347100097985   -0.30077170929007
N          -0.06516475797422   -6.11878090814411    0.07269920794655
N          -0.90379689251525   -7.08131789289639   -0.11874222748933
C          -0.41054106297003   -8.33171008606928    0.04033240129783
C          -1.19390772692320   -9.46029914469907   -0.14783703609881
C           0.90743847378590   -8.80161995979135    0.41147279486927
C           2.10731798983127   -8.17047070672549    0.72252088395394
C           3.19834181790968   -8.95525552016313    1.03608693887156
C           3.11947911134074  -10.34879884179065    1.04754942961261
C           1.94327562766774  -11.00402854102491    0.74431263559938
C           0.84854750676473  -10.21482786387938    0.42833843963805
N          -0.43062092803300  -10.54507314372932    0.08531832716596
F          -0.89706168572142  -11.83101514419156   -0.01053272073523
H           1.78879928749855   -0.93046744228406    0.25803397705042
H           1.64395588431103    1.67405565776158    0.20904779625734
H          -0.81765054230122    2.48649751809908   -0.17612194376997
H          -2.65553879659377   -5.02348843113894   -0.41094576169448
H          -2.75395542662509   -2.40872175986384   -0.46339483393914
H          -2.22426680881896   -9.53992187270517   -0.42958854222355
H           2.16542407345357   -7.09424432774857    0.71285747871360
H           4.13875858218499   -8.48434067991869    1.27908317292085
H           3.99638063739311  -10.92598515899736    1.29829478572601
H           1.87287756022297  -12.08078809387904    0.75067245188680
