20
         -40.504066166442          0.000550595756
N           0.88874797372378   -0.18264851491757   -0.17875475001932
C           2.24099143418357   -0.05874897557528   -0.08636431476844
S           2.99178004472641    1.49978941821631   -0.06480462689834
C           4.58996137636580    0.75651082905012   -0.03833338066966
C           4.48127353280686   -0.62463388146923   -0.04275149177353
C           3.16938929247961   -1.08261879974448   -0.06956443258421
N           5.63381680533262    1.58675745529850   -0.02555415005119
N           6.81183383872204    1.06285405466903   -0.00179382189076
C           7.82643513861676    1.97074708440333    0.00374480400852
C           7.79796939933753    3.39507862233620   -0.00593356619175
C           9.11450082318530    3.77513507586961    0.00460658312230
N           9.09031789235894    1.53432024349740    0.01942540191228
N           9.80272339253122    2.61920461499559    0.01901044926116
F          11.16254063655324    2.53541854840205    0.03221622489822
H           0.32834898786229    0.62683945581006    0.02651229631632
H           0.48796300075990   -1.07522815803821    0.05879084655026
H           5.35674632272513   -1.24812718436629   -0.02677071755585
H           2.88925736125293   -2.12084700122120   -0.07958580896490
H           6.92539525536711    4.01310841901502   -0.01843915578227
H           9.60272749110893    4.72740869376909    0.00306361108111
