34
         -58.477850655234          0.000442191667
C           0.86343911654436   -0.36952689455127    0.17127916386810
C           0.76202046828550    1.03203531315118    0.20897559799202
C          -0.52366764703295    1.46914227839748    0.14328864720330
S          -1.64669877648303    0.17305256547133    0.03097219463700
C          -0.35422104368220   -0.99687888726719    0.07438201541156
C          -0.62915387306798   -2.39102929881621    0.00964072872520
S           0.65190261232358   -3.56449106410856    0.09328052646304
C          -0.49245106602066   -4.87556131765763   -0.07903434007673
C          -1.78776646810789   -4.39135525729374   -0.17744831658619
C          -1.85935590081281   -3.00487436778020   -0.12338297664376
N          -0.00138288072524   -6.12082407305680   -0.00606609244766
N          -0.79031664508011   -7.09000759639174   -0.33266502935944
C          -0.30948681539231   -8.33576547695152   -0.14481977457836
C          -1.01438157933484   -9.46967589567726   -0.53485843597480
C           0.91616400443783   -8.81329404427296    0.45146749434969
C           2.02225906982915   -8.19060510706373    1.01968446308544
C           3.03917929440774   -8.98470219627240    1.50899207849505
C           2.97264645474600  -10.37767940299949    1.44659335157148
C           1.88625453129807  -11.02051188556369    0.88874894474960
C           0.86370452022418  -10.22372324424044    0.39345635968587
N          -0.31552624123449  -10.57808366673498   -0.22076598018616
N          -0.72550206337665  -11.89590830796242   -0.40552507345874
H           1.79084991204801   -0.91226400802846    0.21125183819217
H           1.60969248210798    1.68980338892058    0.28212683349314
H          -0.88835882135063    2.47684349589928    0.15381996141110
H          -2.62952598072000   -5.05302173264097   -0.27227190460890
H          -2.77492161817011   -2.44198137156897   -0.18530497777929
H          -1.97390041944077   -9.52231621510894   -1.01301971995777
H           2.06957908484871   -7.11456521544416    1.06675999333198
H           3.90836610956173   -8.52314401904215    1.95355185271614
H           3.78729268771642  -10.96350889909885    1.84587458603344
H           1.82598897751562  -12.09756793102145    0.85116854017145
H          -0.03583171998843  -12.40852510940874   -0.95246874889898
H          -1.62068976587435  -11.90983455581507   -0.88501380102908
