27
         -45.664972778123          0.000621926248
C           0.94080021121209   -0.03038541340250    0.08569469864183
C           2.42301743940895    0.09041488362602    0.09214212904800
S           3.19058031029705    1.63309905739370    0.09174813051738
C           4.77494834730891    0.88807378379477    0.10197450922771
C           4.66392252370536   -0.49238169468836    0.10500260749566
C           3.34064384794991   -0.93187569764168    0.09944876598787
N           5.82297982890258    1.72398150542415    0.10605002720694
N           6.99748832266302    1.19930095530547    0.11496204128822
C           8.04021886449739    2.06553790115603    0.12045962419240
N           7.98356745379809    3.39400459073981    0.11823749015866
C           9.41326333621931    1.63693229364174    0.13128891908431
C          10.07610067694302    0.41312989067132    0.13802553122563
C          11.45281238031150    0.42843925961555    0.14876586209179
C          12.17428588628547    1.62901861883499    0.15284259041329
C          11.54319551960738    2.85257976377491    0.14619515919216
C          10.15224795077679    2.84141066382941    0.13532415890627
N           9.23171744956554    3.84606844470321    0.12696905814507
H           9.39922354823977    4.84005298760770    0.12711682145749
H           0.47916901173897    0.95292052582924    0.07810275453434
H           0.59956680292481   -0.57210571653056    0.96785936005848
H           0.60788245018008   -0.58200516112878   -0.79347601609635
H           5.53028284917799   -1.12860896782536    0.11110831608185
H           3.05365606075791   -1.96921725986376    0.10080142965966
H           9.51717455472293   -0.50887106642473    0.13488986816767
H          11.99828503263350   -0.50353768777438    0.15428593754736
H          13.25348684759619    1.58953331937655    0.16145195436660
H          12.09750249257555    3.77866021995557    0.14932827139967
