34
         -58.503945271910          0.000727435701
C           0.79726045093698   -0.40637523588177    0.29886999819307
C           0.69891253222620    0.99515095578836    0.29083364767970
C          -0.54430223823905    1.43320117018138   -0.04501805421726
S          -1.62832760230588    0.13977367223407   -0.36096167491723
C          -0.37982641771142   -1.03187253025771   -0.03355982617799
C          -0.64265562354240   -2.42709013964566   -0.12452701511023
S           0.59525016927740   -3.59658751300633    0.21044913378030
C          -0.51077836220383   -4.90935693392065   -0.12046160041424
C          -1.76467941433793   -4.42731572341813   -0.46730780817865
C          -1.83410206422819   -3.04130870271591   -0.46756332474276
N          -0.02499615288814   -6.15189196403203    0.01413342055496
N          -0.83093853119491   -7.12424118874031   -0.25607361574853
C          -0.31037243820744   -8.35869325576750   -0.08887776247732
N          -1.06233028222137   -9.42233313300069   -0.35913631659762
C           0.99236459861448   -8.78885172988662    0.36155623272817
C           2.16526723959789   -8.16509335450582    0.77528096838115
C           3.22467687745325   -8.96892387937603    1.13645040325573
C           3.13610612921363  -10.36514403143282    1.09359188387008
C           1.98559975078513  -11.00562476849331    0.68918043949929
C           0.91325839847746  -10.19839136419199    0.32297678538012
N          -0.34281636756603  -10.50571237499332   -0.11769697727078
C          -0.89606439549417  -11.81108952645963   -0.32015565638594
H           1.69323474354351   -0.95066528798820    0.53769591928027
H           1.51704545638711    1.65244435500150    0.52484410789025
H          -0.89606333292104    2.44222311582474   -0.12767904360077
H          -2.57410426218059   -5.09391178684618   -0.70307641353022
H          -2.71867335731350   -2.47753033352554   -0.70907942737849
H           2.22739371130406   -7.08940675121921    0.80582799805952
H           4.15014871264371   -8.51742704926846    1.46184184487884
H           3.99404550927800  -10.95253732395206    1.38616704507260
H           1.91859084791472  -12.08238929368279    0.65798309430744
H          -0.28353943180222  -12.37985683335339   -1.02355499849048
H          -1.89830247570458  -11.68663959046818   -0.72550356691842
H          -0.94985237758774  -12.35639166900073    0.62577015934532
