18
         -37.118822605495          0.000860315302
F           0.95908781351270   -0.15169386636768   -0.08491647024042
C           2.28117585015677   -0.00553938967335   -0.06950923051263
S           2.97125739629989    1.57141563359010   -0.07256046123314
C           4.57027396157559    0.85243228122878   -0.04749834631586
C           4.50475568743517   -0.52660936072236   -0.03809432852394
C           3.19543720107088   -1.01917705005072   -0.05059385756103
N           5.60871737681969    1.71193023257167   -0.03907360306867
N           6.78522275789923    1.20414362212495   -0.02290516365891
C           7.80035620754033    2.11118168470824   -0.01257993975586
C           7.76983612783475    3.53743479453837   -0.01493162193164
C           9.08437601451515    3.90660310880978    0.00072737148559
N           9.06192051956620    1.67731080153782    0.00352660276899
N           9.81116836090236    2.76071486516928    0.01120860161659
H          10.81579592906846    2.67095368274467    0.02372201477919
H           5.39276210738359   -1.13143371379299   -0.02244756667439
H           2.92568609593141   -2.05915664764681   -0.04610066031436
H           6.89504681140834    4.15189424993043   -0.02648823119639
H           9.55258378107947    4.87029507129978    0.00523489033690
