33
         -63.591129982564          0.000680219403
C           2.55032651732496   -1.47135026992435    0.98651627406109
O           3.06290859454556   -0.34763569869107    0.29859442316574
C           3.63556300873734   -0.56478667741987   -0.89157505136540
S           4.25151652755730    0.81600060408900   -1.72503118189194
C           4.78800758412902   -0.21037638275560   -3.05185490398593
C           4.47562490656344   -1.53674486820563   -2.80459472098057
C           3.82400190405437   -1.73815571653318   -1.58978295353850
N           5.37312358602536    0.39876163315697   -4.08588948567812
N           5.82839185676315   -0.34576952692985   -5.03847650180416
C           6.33756136062766    0.34034297451767   -6.08586203123192
N           6.94448344071242   -0.30754874524290   -7.06970419093659
C           6.30564144341494    1.75204043499749   -6.38471025110737
C           5.85037528692433    2.94987914546754   -5.84718099321612
N           6.04187560520505    4.07930661531973   -6.50392961981198
C           6.66614515424686    4.04035264321791   -7.67669268898755
N           7.14411719597990    2.98410194252964   -8.30480361140227
C           6.95479446814302    1.85123779655664   -7.63996255564462
N           7.31822942630163    0.58740060811868   -7.99684150643944
C           7.99046494971072    0.18240199163508   -9.12787245504327
C           8.48825476200945    0.86525589395282  -10.21182124096079
N           9.07446883498910   -0.01562479860569  -11.05769129633193
C           8.94374426849023   -1.19433835031603  -10.51657944798972
N           8.28709659696968   -1.13592322653110   -9.33256969518957
H           8.04081252548484   -1.87272158122125   -8.69102331793589
H           2.13675074615618   -1.08400934335583    1.91500678604760
H           3.34184907768144   -2.19229361253638    1.20823498507621
H           1.76206954237140   -1.96042993938491    0.40781213145350
H           4.72229667117292   -2.31107891529829   -3.50799903494126
H           3.50564195717204   -2.70302682585026   -1.23955071444853
H           5.33867414294044    3.00598159017612   -4.89639764137325
H           6.79564262396460    4.99012270419489   -8.17785616545225
H           8.45071499069942    1.91489903293670  -10.41247202523913
H           9.30605044293105   -2.10697113206516  -10.94387931687540
