25
         -45.729786082158          0.000183321482
C           0.92173610724834   -0.48016684325912   -0.02966263665026
C           0.86595774535826    0.92338496019433   -0.04536456170348
C          -0.40859559312840    1.39887632595144   -0.03035641572120
S          -1.57462849767875    0.13970274514263    0.00377734469146
C          -0.31913746978561   -1.06913516000511   -0.00247990668747
C          -0.63484075013332   -2.45670911473687    0.01743389335305
S           0.61551602396902   -3.65796084517006    0.00001984480956
C          -0.57196857778533   -4.93985015548138    0.03724035066394
C          -1.85965353165338   -4.42471550927853    0.06103586372836
C          -1.89089391669613   -3.03726230183358    0.04945914117110
N          -0.09649687792878   -6.19524675965901    0.02798483246349
N          -0.95810014534570   -7.14873895208163    0.06648421979588
C          -0.41934972664130   -8.39830408353671    0.04400615200322
C           0.94357706473096   -8.81663419019771   -0.01798983500103
C           0.88263516046849  -10.18051146132545   -0.01523917194883
N          -1.22585580281202   -9.45999710437784    0.08079091848151
N          -0.43157325893556  -10.51253953697207    0.04470791648763
H          -0.83170666470839  -11.43802408137678    0.06270777914785
H           1.83243570872238   -1.05166059935539   -0.03758198483912
H           1.73553353953119    1.55532470010367   -0.06682128772179
H          -0.73901482593648    2.41839426358860   -0.03728967243881
H          -2.71979806071061   -5.06888038123469    0.08439039309029
H          -2.79248842089928   -2.44954775429391    0.06373835969304
H           1.80073285131407   -8.17876690194878   -0.05693705108223
H           1.65055791943632  -10.92708125885564   -0.05035448578600
