20
         -36.334603800918          0.000887318037
N           1.03077182617570   -0.14042296072885   -0.20616599777196
C           2.38662732868326   -0.01864157612356   -0.10833979054307
S           3.13788330200579    1.54096620066982   -0.08502110835084
C           4.73549819759341    0.79900770610224   -0.05638390129388
C           4.62791624530675   -0.58007396007273   -0.06144186233779
C           3.31411880634849   -1.03984388272372   -0.09023861948803
N           5.78118575679099    1.63213449072350   -0.04312815857198
N           6.95675774686383    1.10653127978449   -0.01735205363292
C           7.97769604688363    2.00886640045334   -0.01271160841822
C           7.95218407149528    3.43534634991640   -0.02266658704743
C           9.26753588095579    3.80176748406621   -0.01374195113110
N           9.23646964989896    1.57087904354644    0.00154751932946
N           9.99254493838510    2.65567799830787    0.00032857036691
H          10.99617800049875    2.56126909207993    0.00833627732521
H           0.47923205598503    0.67012818197028    0.01993153839952
H           0.63441960646008   -1.02842562547553    0.05768293622077
H           5.50333691019322   -1.20365502738582   -0.04415752975379
H           3.03567022976588   -2.07871242530247   -0.10133309292327
H           7.08027997035326    4.05425770255668   -0.03397056810766
H           9.73803342935685    4.76486352763553   -0.01637401226994
