28
         -45.413543803720          0.000762561271
H           0.89553685317953   -0.35241469527374   -0.59497489484808
C           1.96107736896547   -0.27056171228498   -0.50862918880007
S           2.68166202952318    1.28181349991128   -0.40633875538928
C           4.27186788582045    0.56396969692699   -0.29787093197571
C           4.19394552795836   -0.81375923105359   -0.34644336919876
C           2.87921226769517   -1.27958435027383   -0.46714291114173
N           5.31369156101428    1.41632119404746   -0.20757239947087
N           6.48219335793226    0.88671430222410   -0.08224157226359
C           7.52099634327788    1.75009605111683   -0.01836152528248
C           8.83163896930217    1.32046220675784    0.12455671240638
C           7.57873907899793    3.19277973145729   -0.08174872491240
C           6.62308141338139    4.19321889208983   -0.21781862729750
C           7.05089079652087    5.50511995970814   -0.24149641131358
C           8.40285642219822    5.83163643414952   -0.13408865554119
C           9.36962357746632    4.85514196012529    0.00201974845911
C           8.94455377205607    3.53452387175195    0.02833212590271
N           9.67605524111929    2.37384368045382    0.15381353843769
C          11.10298037889864    2.31153591817718    0.28325152721033
H           5.07034226898771   -1.43416018210116   -0.29758487154341
H           2.61499492028015   -2.32136485193672   -0.52094300876804
H           9.18889161356460    0.31192845063117    0.20767013095623
H           5.57981774796014    3.93466502973221   -0.30125291863291
H           6.32778012250688    6.30047850700174   -0.34546653524046
H           8.69904964162080    6.87009725609156   -0.15797906376695
H          10.41484566218536    5.11374766016227    0.08400444688542
H          11.43101100437773    2.86591374057610    1.16560631069772
H          11.58500837185733    2.74383070229733   -0.59734613489084
H          11.41290580135225    1.27267627753399    0.38159595932158
