34
         -62.502574730027          0.000548379871
C           0.90990803654617   -0.45466084369200   -0.24414163465021
C           0.84325310577891    0.94826630933731   -0.26102703812683
C          -0.42958895253205    1.41570550018779   -0.14773560271900
S          -1.58063698926512    0.14925738894932   -0.01749536459967
C          -0.32113248258477   -1.05209197000479   -0.11720279507151
C          -0.62563208855283   -2.44064230562916   -0.06321269461829
S           0.62313882687371   -3.63966814626094   -0.16170725211176
C          -0.55434476662788   -4.92451849293980   -0.02165949426315
C          -1.84009219471803   -4.40855798871932    0.09287846850596
C          -1.87581890888613   -3.02324197083755    0.06958293757782
N          -0.07571432280010   -6.17317492263175   -0.03455235435647
N          -0.93462772979453   -7.13003135292218    0.06652185836232
C          -0.43615058988047   -8.38642285874148    0.06080677202766
N           0.83945433804723   -8.74939178761177   -0.04932677415857
C          -1.25844159908762   -9.55640935197487    0.18119130024466
C          -2.59038445462984   -9.92807820161592    0.32916088422950
N          -2.92182110087951  -11.19686073082048    0.40768019652845
C          -1.95025166221161  -12.12974907407188    0.34211952146434
N          -2.36494307839155  -13.41149614800192    0.39193954222441
H          -1.67952117521334  -14.14002004396432    0.46761758354981
H          -3.32823903451124  -13.59092476600910    0.60605629707179
N          -0.64178281032201  -11.91539735442243    0.21159279550067
C          -0.33122182263181  -10.62683227716805    0.13079966236948
N           0.89849467585670  -10.07929618136443   -0.00725791560252
C           2.14707632417321  -10.77567814518926   -0.10605367207620
H           1.82061511691740   -1.02090365578727   -0.32109163313845
H           1.70393860693673    1.58604045359376   -0.35318461289785
H          -0.76669649226866    2.43300876621135   -0.13233311993717
H          -2.69553048212533   -5.05220762444936    0.18948343740437
H          -2.77477829850558   -2.43616610892248    0.14615969072742
H          -3.39633533912808   -9.20933489892411    0.38841338861281
H           1.93876790201542  -11.84119726199368   -0.03625783945410
H           2.81087605803186  -10.46641294998414    0.70266586776869
H           2.62741338437091  -10.54718100362512   -1.05873040638843
