36
         -70.017445593903          0.000813786424
C           0.33157453284453   -0.49424447608795   -1.78551667107153
C          -0.07874572393617    0.84335202257245   -1.94311145570492
C          -1.42708685652148    0.84820348939004   -1.73460024431864
O          -1.87601721406582   -0.38359101815708   -1.46058965758411
C          -0.80597462362899   -1.21428307788993   -1.48880825514805
C          -0.99170957442188   -2.60385610022312   -1.22929094192235
S           0.33932560401390   -3.70510137677211   -1.24165286681040
C          -0.72883499224783   -5.04125324021377   -0.86788968358294
C          -2.04431255121725   -4.60673734524378   -0.74349870084040
C          -2.18798195882144   -3.24427532624579   -0.94427049573215
N          -0.16671222937871   -6.24592322907435   -0.73733579571815
N          -0.95723692034234   -7.24106684512877   -0.49551793513649
C          -0.32895250199641   -8.42489937776829   -0.33592864199580
N          -1.03998492987244   -9.52365016266329   -0.12267794562695
C           1.07720544788440   -8.75239524798176   -0.33368197513952
C           2.31880384862259   -8.14569616158872   -0.48134000745297
N           3.41860341112561   -8.87130094548756   -0.39776617782193
C           3.30976833074948  -10.17623461497030   -0.17057679428390
N           2.20617706360800  -10.88025948354639   -0.01075982752647
C           1.10297138875398  -10.14847368371895   -0.09694988845909
N          -0.19426384415573  -10.55292181108331    0.01879168099997
C          -0.67161179568163  -11.82295661680848    0.24959022026227
C          -0.04856252794833  -13.03535486252476    0.43108608960017
N          -0.98905102139171  -13.98985774028480    0.62679098440807
C          -2.14576317034600  -13.39052924190105    0.56792401952047
N          -2.01460430412981  -12.06134975892025    0.33901939711020
H          -2.72020762179472  -11.34808603519024    0.24369264544823
H           1.32227264651559   -0.88927341657078   -1.87449884642517
H           0.53954692354021    1.68509558857409   -2.17810896021442
H          -2.14991348300236    1.63961634913881   -1.75216752872506
H          -2.83815443641558   -5.29276662867681   -0.51098144424993
H          -3.12039029215327   -2.71174271410954   -0.89113221204312
H           2.43259101196810   -7.08654128458116   -0.66571432982994
H           4.23836847529059  -10.72721486757775   -0.10822341623770
H           0.99861421153835  -13.25340916564642    0.42977379637906
H          -3.09293032298170  -13.87653159303593    0.68469186587302
