18
         -37.065208125796          0.000653816714
H           0.99344853031078   -0.14117807390287   -0.06063704820544
C           2.06491931813733   -0.09465007603756   -0.06424015693116
S           2.84061577875022    1.42782581017526   -0.06598356123090
C           4.40758418101822    0.65353129712325   -0.07177902275291
C           4.27936682048598   -0.72455280580425   -0.07216365439783
C           2.94650295309989   -1.14114704926780   -0.06781943374697
N           5.48202761909062    1.46422099524121   -0.07379113326545
N           6.63524467678999    0.90353395432403   -0.07901058124799
C           7.68641718070900    1.76915471545246   -0.07914239040922
C           7.71609192687734    3.19324796102578   -0.07288683680490
C           9.04713613006706    3.51810931351507   -0.07547970282493
N           8.93192162101244    1.28111988471095   -0.08511897005908
N           9.68659616505104    2.33344015002815   -0.08276294887639
F          11.03925557190560    2.19345845797136   -0.08743237146256
H           5.13775827532808   -1.37115500129091   -0.07538887295987
H           2.63810832790351   -2.17144721102690   -0.06728009853458
H           6.86831199035328    3.84505591882828   -0.06735204747667
H           9.57394293310965    4.44950175893450   -0.07284116881316
