29
         -53.075228856203          0.000389847452
C           0.78579830207003   -0.07906890028944    0.03614355247202
C           2.26700201148665    0.05144301577602    0.01328793951979
S           3.02613187282918    1.59954420289202    0.03138623928532
C           4.61359606736343    0.86477960946797   -0.00574422549847
C           4.51127078688885   -0.51648501187550   -0.03173461725639
C           3.19077265951327   -0.96429824998764   -0.02068223777927
N           5.66209844799514    1.70013915027165   -0.00209177009240
N           6.83299638909562    1.15880815670267   -0.01568625864100
C           7.88997276955734    1.99422148231609   -0.02217129841484
N           7.87494840837389    3.33070653331647   -0.06236774114670
C           9.24766847762379    1.53843804143411    0.01791264886335
C           9.98921987266025    0.36175661748120    0.08129196394734
N          11.30046459643149    0.40291841478450    0.12248137140405
C          11.91965672795237    1.60219536565928    0.11108299276010
N          13.26503589719675    1.56746197583823    0.21599756885712
H          13.77658751512717    2.41504694983510    0.04943007277688
H          13.71789409913818    0.67804980428317    0.10867631494203
N          11.34172068067987    2.79918614213995    0.04489087161442
C          10.01527493390634    2.72991716478566   -0.00786554220538
N           9.12960044373534    3.75001591173474   -0.06150426878570
N           9.42570165878268    5.09206976871033   -0.19331775021180
H           0.31731617433882    0.90100206992668    0.04248640585578
H           0.46626804840666   -0.62664917368802    0.92295966132922
H           0.43897019148497   -0.62958791896315   -0.83826531530869
H           5.38206281011961   -1.14597824447207   -0.05748826608216
H           2.91075579736183   -2.00344918225399   -0.03650329535962
H           9.53119772442924   -0.61762405254432    0.09758997190175
H          10.21879464104809    5.33233507016456    0.39493044601924
H           8.59692199440337    5.63078528655379    0.04170456523400
