31
         -55.788394158812          0.000914076203
C           0.86169138859428   -0.45267850487654   -0.05679147984042
C           0.64266261376276    0.89893426799699   -0.05798911200830
C          -0.75861667710917    1.03217620796459   -0.01532821329927
N          -1.34681660130115   -0.14137786247487    0.00955166884867
N          -0.36072646760271   -1.04653130884984   -0.01556078448970
C          -0.63916585224624   -2.39152497852750    0.00134308592286
S           0.62090785792381   -3.57358961357330   -0.03030362134695
C          -0.56888535008059   -4.86259929238909    0.01488706510731
C          -1.85480147986371   -4.34633833425440    0.05153737831359
C          -1.89561901701973   -2.95585692911791    0.04390699724755
N          -0.07850704222466   -6.10761658035665    0.00778551922841
N          -0.92285759544963   -7.07936082420818    0.04028440922179
C          -0.39804313367392   -8.32740986812856    0.03248326021164
N           0.89058749293236   -8.65857836068359   -0.00386711299667
C          -1.20497753407429   -9.51778951906095    0.06417925676386
C          -2.56759565843928   -9.79766179876320    0.10662344778429
C          -2.95049052616062  -11.12020280671451    0.12634874260698
C          -2.01038193117097  -12.15822832394694    0.10475647628710
C          -0.65703074567277  -11.90843626969697    0.06280039132265
C          -0.26632069421478  -10.57361638609510    0.04279826583698
N           0.96147468900056   -9.98269732413703    0.00244454102937
H           1.86405639752890  -10.43130681017988   -0.02153434650455
H           1.76136857078599   -1.03278154311202   -0.08122418152245
H           1.37150305025115    1.68195358884798   -0.08509255256987
H          -1.34346735781070    1.92997701537777   -0.00249923577232
H          -2.71473005444153   -4.99023023591740    0.08236909393587
H          -2.78676221074209   -2.35647999225504    0.06779728568176
H          -3.28841607044569   -8.99619640999192    0.12316902913746
H          -3.99991228627627  -11.37239688421428    0.15929614262743
H          -2.35995657583925  -13.17982464830450    0.12154356955302
H           0.06880880108001  -12.70685967035725    0.04609501368186
