34
         -62.805385335456          0.000946574150
C          -0.61250279417638    1.35850983550817   -0.12849547245400
C           0.71046690356176    1.38009986312180   -0.24409703349161
S           1.76622525377467   -0.00755471421376    0.00626152225221
C           0.51772443765544   -1.25106361931012   -0.06609373522498
C          -0.78604618970014   -1.02238256885168    0.03130889413729
N          -1.37496607743671    0.23278708645129    0.18867645588169
C          -2.69905244720917    0.35072886790438    0.50546276888018
S          -3.72661066959097   -1.05030064220769    0.61276308232425
C          -5.10629932697512   -0.04664102148985    1.03468378528596
C          -4.73847002679743    1.28765849178605    1.07803359244001
C          -3.39876235233724    1.51253722312029    0.79043381336548
N          -6.25537818749247   -0.68355107378550    1.26525689678637
N          -7.28375388923334    0.04151438815532    1.56008444259321
C          -8.41587238015261   -0.66347623819156    1.81155724953136
C          -8.64114077463627   -2.07659345943660    1.83835187109049
C          -9.95650745279180   -2.21009783314908    2.16027254015069
N          -9.53999608134249   -0.01202942402579    2.10169949504393
N         -10.45968988150899   -0.94748485581927    2.30916996377190
C         -11.75295557911370   -0.60585183559902    2.63293186211734
C         -12.33588748213828    0.62292515641490    2.77513912918382
C         -13.68446096203806    0.35944597210539    3.11521749772568
C         -13.81446462551066   -0.99300041868791    3.15267734851344
O         -12.64044988140833   -1.59367664679380    2.85950089273519
H          -1.18149285429806    2.25223587974838   -0.33013439681389
H           1.23535209782686    2.27405477796055   -0.52884854019639
H           0.90605565531706   -2.24254043486004   -0.21308305262163
H          -1.48713987745141   -1.84165286608599   -0.02943573572017
H          -5.45259263640448    2.05120012218909    1.32738886354209
H          -2.95324561068452    2.49025779742182    0.81587700790491
H          -7.91510254955221   -2.83764437246909    1.64490714988009
H         -10.58139095904188   -3.06917187024901    2.29786561280737
H         -11.85178771002928    1.56742829256143    2.65000121582171
H         -14.44969697239943    1.08334927793829    3.30471101264735
H         -14.64648811668535   -1.63357913716088    3.36439400010919
