27
         -45.644863437844          0.000504747396
H           0.96804673016188   -0.36330729729239   -1.14906854300958
C           2.01923631967993   -0.27994677020180   -0.95542484097679
S           2.77564869268053    1.25533083177457   -1.06615190285275
C           4.32242449121780    0.55111583880115   -0.65470884124992
C           4.20251761196771   -0.80820357768973   -0.44352651164983
C           2.89239490538442   -1.27160187528156   -0.61473369505887
N           5.36530991181725    1.40006734445224   -0.56334786563594
N           6.52765194102518    0.87431725593841   -0.37235776574269
C           7.55462010284487    1.74131039888639   -0.24071170405166
C           8.86891176427872    1.31482307083701   -0.09010455472953
C           7.59786752582674    3.18448908316229   -0.21956320222050
C           6.63621880730516    4.18335173676161   -0.32991563989733
C           7.04931274597877    5.49794849033643   -0.26121415430972
C           8.39270353581864    5.83338105102967   -0.08198238165981
C           9.36640266517900    4.86204992889684    0.03079430624231
C           8.95348121783529    3.53908694914528   -0.04044996171009
N           9.68940400503041    2.37837627830601    0.02308091242926
N          11.06470191577391    2.34675362509671    0.24052311774175
H           5.04491770223436   -1.41700751736535   -0.17005618519762
H           2.59974128384010   -2.30003113196219   -0.49361699350523
H           9.23999075280669    0.30817953133607   -0.05399811184038
H           5.59982762373211    3.91996156598910   -0.46621524568454
H           6.32032146451810    6.29024938697838   -0.34528792781054
H           8.67428479720186    6.87466304305508   -0.02906636614759
H          10.40431999266323    5.11732742510062    0.18142516631226
H          11.55361022361445    2.83913107675660   -0.50565500261576
H          11.38121126958263    1.38220425715188    0.27575389483060
