26
         -49.932692352297          0.000566597047
N           1.06283994723212   -0.13431456720196   -0.18855663038138
C           2.41705138294809   -0.02437346074180   -0.09728743993018
S           3.18843033113559    1.52387456496348   -0.11464757042180
C           4.77749642146141    0.76134445994982   -0.06167468901139
C           4.64827331785877   -0.61960828043890   -0.03060751583271
C           3.33121174109461   -1.06087197849617   -0.05112425574594
N           5.82613439840727    1.58038537545421   -0.06484698360513
N           7.00055738098749    1.04702982862153   -0.01784172986922
C           8.04800615098508    1.90793182265309   -0.01353871360332
N           8.00927571784896    3.23400830399537    0.00158094978570
C           9.41391406002537    1.46196874270587   -0.00881000802832
C          10.15873266545934    0.28890308372214   -0.00833388936586
N          11.47277605768560    0.33407019045020    0.00291312896931
C          12.08036702794452    1.53669414933796    0.01117046847806
N          13.42962233137345    1.51329636701276   -0.02369566977831
H          13.92547061154512    2.37227443287302    0.12869206946794
H          13.88783293791801    0.63208274030218    0.11962897734423
N          11.49268737136111    2.73296542756189    0.02232272414303
C          10.16831457441455    2.66287157008464    0.00810626359921
N           9.27524976641617    3.67645810970240    0.01547156059307
H           9.46152481902538    4.66647717520927    0.02965439113719
H           0.51633764311896    0.69026208268343   -0.00708692730142
H           0.65161860360378   -1.01212193306795    0.08270508948875
H           5.51371198533674   -1.25633606252854    0.00452417831183
H           3.03703160161682   -2.09535231005576   -0.03599811348491
H           9.70515115319584   -0.69293983475195   -0.01212966495850
