38
         -68.987554695012          0.000372912136
C           0.26298287054903   -0.46764415088920   -1.83869629313731
C          -0.17851348348159    0.86276438142959   -1.98071172849926
C          -1.51102047477274    0.84970786258841   -1.69108393126076
O          -1.92238469698783   -0.38847737131195   -1.38188173484727
C          -0.84261718570685   -1.20224220791193   -1.46960520934670
C          -0.99269212216370   -2.59461495447779   -1.19559680387363
S           0.35504088370166   -3.67578782025016   -1.28229409769509
C          -0.66981607777698   -5.03050467846849   -0.86051071756268
C          -1.98090269995805   -4.61856077709789   -0.66158212513558
C          -2.15788475123899   -3.25525462548309   -0.84715739129372
N          -0.08132626446312   -6.22918376705981   -0.75113870976234
N          -0.85894963858126   -7.23678078580338   -0.52749148880437
C          -0.23549437186356   -8.42114245334293   -0.35781550116921
N          -0.96772217236343   -9.51271140413837   -0.18916195039242
C           1.16805233068677   -8.76068365251946   -0.29155178736530
C           2.35731456088824   -8.04804933313650   -0.39108991672125
C           3.53709119326857   -8.74967314233086   -0.26526011636723
C           3.54135174923943  -10.12921541402879   -0.04402243631085
C           2.37283376644800  -10.85480709929047    0.05899617749376
C           1.17946736617986  -10.15393269318870   -0.06728854579584
N          -0.14253442591398  -10.54681635616121   -0.01839580068572
C          -0.69395591179878  -11.79388395052533    0.16699198533175
C          -2.03448137861863  -12.07089699924205    0.15016271161729
C          -2.30454268241472  -13.43434442746157    0.37636961070768
C          -1.18219506762573  -14.17417656911780    0.56211389638938
S           0.24817997772008  -13.22063150655389    0.46508641066819
H           1.25289797519531   -0.84824399131587   -1.98488697106874
H           0.41047546066424    1.71199818510997   -2.25983107165993
H          -2.24721039311838    1.62880364485655   -1.67068093481579
H          -2.74946797234283   -5.31798788931624   -0.38704493983532
H          -3.09604575169928   -2.74040827058884   -0.74088993872262
H           2.33839855472321   -6.98413481371823   -0.56286973753067
H           4.48010974004756   -8.22885977184812   -0.33772014330229
H           4.48652464199701  -10.64278958823568    0.04997456466703
H           2.39736375233437  -11.91839542920517    0.23056116512803
H          -2.77371895267369  -11.31153737143720   -0.01975856489200
H          -3.29690208690426  -13.84672825797796    0.39900157504771
H          -1.09248626117294  -15.22499255054234    0.75043049080348
