33
         -59.565345467592          0.000392993617
C           0.77415621665085   -0.29665494966140    0.18921489246310
C           0.41180962813951    1.06503224846460    0.21258873203515
C          -0.94792506337299    1.09414276728790    0.12011431678205
O          -1.44963068699664   -0.14753407700539    0.04032214074143
C          -0.40190280502587   -1.00555511435933    0.08228086830615
C          -0.64544238283468   -2.41002390060740    0.01156756010461
S           0.65645573477233   -3.54944194678106    0.08224770156412
C          -0.46460719081204   -4.88289515075393   -0.08818015858759
C          -1.77094847531531   -4.42404826553479   -0.17861823231731
C          -1.86913077463163   -3.04050253697381   -0.11803226696420
N           0.04688037783900   -6.12041080864568   -0.03494529858702
N          -0.74819390074576   -7.09547335886746   -0.32444274981990
C          -0.23895737751668   -8.33038450503116   -0.14779094282861
N          -0.94485343884174   -9.38799870197669   -0.54893054406648
C           0.98514141463752   -8.77645129771910    0.47183519709867
C           2.08585023507386   -8.16509352167915    1.06586171603854
C           3.07606071509366   -8.97984723404841    1.56923684762287
C           2.98980624942585  -10.37634488192729    1.49855811084158
C           1.91186122612873  -11.00637603780167    0.91863856504335
C           0.91239736925755  -10.18535915387444    0.40725387312841
N          -0.26476377010045  -10.47072814448811   -0.22073599314406
N          -0.76348646121177  -11.73358118861609   -0.47593791201825
H           1.75894295408701   -0.71317321969143    0.24134452580196
H           1.06920900771548    1.90662217199584    0.28763477779076
H          -1.64793959685763    1.90585237647333    0.10225855840407
H          -2.59660628157186   -5.10550652792544   -0.27408281073625
H          -2.79195304811645   -2.49080631566687   -0.17031974612841
H           2.14775141975227   -7.09008907880431    1.11741622890097
H           3.94459393109852   -8.53738102750383    2.03397032850775
H           3.79021530909916  -10.97038770761143    1.91423116694582
H           1.83143648037577  -12.08072598380352    0.86932923627133
H          -0.29030323273931  -12.16143279510410   -1.27229908194833
H          -1.75296378245631  -11.63847213175719   -0.69121960724451
