32
         -59.850471698761          0.000719905341
C           0.86443439737556   -0.45894024005148   -0.03371742752535
C           0.64574219615893    0.89267950539784   -0.03373350500984
C          -0.75611997165562    1.02567777294494   -0.00119328103553
N          -1.34436405853239   -0.14788621869034    0.01746765674523
N          -0.35827768117936   -1.05281245989277   -0.00243888863792
C          -0.63792059390265   -2.39729262278836    0.00986813067691
S           0.62321771663454   -3.57941212332007   -0.01456363242176
C          -0.56609893406991   -4.86707091455108    0.01976135910184
C          -1.85219305823860   -4.35462122096025    0.04760177173988
C          -1.89324091225166   -2.96308160481519    0.04205474351920
N          -0.07981269789852   -6.11630894985872    0.01474076915022
N          -0.92856966774571   -7.08383798841998    0.04102373553151
C          -0.36557869686048   -8.31976143123174    0.03438346708837
C           1.01262435256140   -8.70224131497040    0.00117161722472
C           0.99201399534893  -10.06282041335222    0.01074296227224
N          -1.14406070966363   -9.40043315725315    0.06169436540407
N          -0.32243184375926  -10.43963465577708    0.04735587276693
C          -0.80377671782351  -11.72998289935707    0.06899543116365
C          -2.08643619783217  -12.20259248880581    0.10640677696131
C          -1.96462972800859  -13.61256289981030    0.11311493566825
C          -0.63280837967583  -13.88344943807205    0.07958042589924
O           0.08577895961458  -12.74140968606515    0.05249375443445
H           1.76553276068572   -1.03728552246116   -0.05280088769813
H           1.37513645747703    1.67529349836775   -0.05400426507026
H          -1.34098834194932    1.92347241869019    0.00921473991270
H          -2.70984133772827   -5.00188809540438    0.07088394673782
H          -2.78592865059492   -2.36578974759045    0.06036094840741
H           1.85266639059148   -8.04118323544447   -0.02506117910841
H           1.77348235322300  -10.79509027572028   -0.00462060099519
H          -2.97633796912442  -11.61114368181672    0.12591428522795
H          -2.76369032183155  -14.32387312523988    0.13939254151838
H          -0.08225310934471  -14.80225678368020    0.07142943035012
