31
         -63.456399692056          0.000438037566
C          -0.55312852071285    1.34236997531846   -0.17583059806083
C           0.77196763599043    1.35452991921925   -0.27411697665469
S           1.82922121109033   -0.00330285752888    0.08635515028461
C           0.58375192631240   -1.24322394819890    0.17247240517567
C          -0.72259006226561   -1.01194801512605    0.22983419417164
N          -1.32510641864515    0.24771192914248    0.22059396206119
C          -2.65399823834485    0.38346243536278    0.48664482676581
S          -3.65131395188094   -1.00661557876370    0.80301871059806
C          -5.06767824154364    0.01532858263140    1.01066460833919
C          -4.72829777167077    1.35326745508240    0.84356774209900
C          -3.39087018218220    1.56188190749431    0.56069424228467
N          -6.20381857226201   -0.60194759338303    1.30495218203873
N          -7.27560360709533    0.12273871927957    1.40250227417091
C          -8.37390910616121   -0.56631523721809    1.77974806664540
N          -9.56485601997489    0.01590347238659    1.77629060362848
C          -8.50152412367301   -1.91981287559828    2.27132609161167
C          -7.72390612809117   -3.03742553031875    2.54720257057590
N          -8.28687219207167   -4.13503370848478    3.01941932712385
C          -9.59880610711702   -4.14328735498689    3.23108932528265
N         -10.45705052973298   -3.16332798558875    3.02905169936737
C          -9.88882969700080   -2.06572007103686    2.54900898199051
N         -10.42765418194656   -0.87576237796084    2.22542660039723
F         -11.74028918911229   -0.52756949988887    2.30516840496624
H          -1.11342673562632    2.22227317077329   -0.44794130261652
H           1.29786584938774    2.22972441367917   -0.61215215787666
H           0.97419122624637   -2.24507332986958    0.16427135443421
H          -1.41565475987195   -1.83900585582870    0.27200119366593
H          -5.46879680946629    2.12605652867137    0.94239147949458
H          -2.97158214691997    2.54284929439298    0.43204264032557
H          -6.65447853209635   -3.05539320327522    2.38946003130381
H         -10.01325602356539   -5.06461278038085    3.61761236640361
