38
         -72.644593009356          0.000758774198
C           0.96072828101220   -0.46879726045533    0.25227619657559
C           0.89277359636697    0.93310381361239    0.29356805487261
C          -0.38642087588017    1.39784061107730    0.29857585446357
S          -1.54181303070961    0.13036530376439    0.25267851779646
C          -0.27601643135678   -1.06823869574924    0.22589146068723
C          -0.58178704951161   -2.45630890669401    0.18490674054424
S           0.67165775934136   -3.65327987049952    0.15954888433782
C          -0.51341938411225   -4.94016212453880    0.12066144455843
C          -1.80514806037252   -4.42412072111534    0.12702706103695
C          -1.83906425961770   -3.03998703125528    0.16301918261546
N          -0.03876350985520   -6.18829094544483    0.09809633678853
N          -0.90921936419593   -7.14392098766537    0.06925231620739
C          -0.41543136215042   -8.39931549584586    0.05452811146482
N           0.86400423432705   -8.76147361908114    0.06121914723408
C          -1.24642408764832   -9.56978109920851    0.03197688117912
C          -2.59153450403296   -9.92726165376941    0.02135830110836
N          -2.94197038952957  -11.19195531231745    0.00536995319753
C          -1.97820469354394  -12.13551301012018   -0.00100723444133
N          -2.40357067152635  -13.41026829223513   -0.03845484144724
H          -1.73192438229429  -14.15211571119704    0.02451856905682
H          -3.38829775053670  -13.59250795910610    0.01881593514806
N          -0.65962301385803  -11.93169676031747    0.01250298482728
C          -0.33189332446876  -10.64933295748476    0.02691957609587
N           0.91676201579144  -10.10173809020493    0.04439343298369
C           2.13194207086206  -10.74500739212947    0.04771622864321
C           2.49021646763898  -12.07204847220319    0.02960243597086
N           3.84179298284970  -12.16643588454832    0.04559340588573
C           4.29837632242433  -10.94493644576952    0.07105352016009
N           3.29737175487232  -10.03184533350774    0.07424282788272
H           3.33629007904051   -9.02469641591353    0.09056459663945
H           1.87619663952142   -1.03244570078172    0.24207242461509
H           1.75653357712352    1.57271625066289    0.31891238983007
H          -0.72499192466121    2.41433243294293    0.32676060216477
H          -2.66507894502489   -5.06860450649022    0.10655103250251
H          -2.74163022202069   -2.45373980996407    0.17410732696921
H          -3.39038659048976   -9.19865227586465    0.02759392934308
H           1.85529876431166  -12.93199863737471    0.00668714234870
H           5.33597928191405  -10.68044103320716    0.08857927015323
