30
         -61.217712169389          0.000862370207
N           1.39705439193356   -0.63784974546702   -1.35992396776683
C           2.51358913280302   -0.43972399530581   -1.18067526636809
C           3.87351611899066   -0.21284733575553   -0.96108653874513
S           4.54054443463769    1.38189351098115   -1.02725436585166
C           6.12634440962674    0.74537794616570   -0.68382218949621
C           6.10154497111598   -0.63519151866033   -0.52470609159832
C           4.83172564871484   -1.17246124607964   -0.68012783681058
N           7.12473731301209    1.63957791844864   -0.58884614445994
N           8.31260428233156    1.16575734246264   -0.43304324752432
C           9.28132305581322    2.09516997400514   -0.29802978368815
N          10.54630411311468    1.71315983269396   -0.18492017985811
C           9.20290530117111    3.53580543533357   -0.24019903461064
C           8.26656313359133    4.56299257448797   -0.29069308865540
N           8.66418902713348    5.81754963211176   -0.19764049337424
C           9.96069438348775    6.07121433888650   -0.05453382520713
N          10.94992879965742    5.20173578329731    0.01104883484029
C          10.54918347331221    3.94319300646963   -0.08406703921512
N          11.30617960877775    2.80022540834017   -0.05885539415941
C          12.67462831342606    2.68819072229313    0.06438830104464
C          13.46460885313592    1.56848083394086    0.05434029158066
C          14.78405982460546    2.04767166536944    0.21435532870163
C          14.68895869897913    3.40375596630925    0.30750067031155
O          13.40734372464205    3.80016378026828    0.21708869860749
H           6.99349680954866   -1.19208571320025   -0.30136708476077
H           4.59491334439819   -2.21904484424175   -0.59914237703437
H           7.20663416815420    4.38348821162944   -0.40534671576559
H          10.23805038805807    7.11406399686904    0.01579764598379
H          13.12947846498158    0.55910837031760   -0.05356565555420
H          15.67776040642641    1.46040426004258    0.25337259358918
H          15.42713540442847    4.16963388798605    0.43455395584088
