24
         -50.884200115044          0.000303413423
F           0.97482399928323   -0.41671648011915   -1.01387104204712
C           2.27232677098798   -0.22251554944653   -0.79809645895860
S           2.92242913889459    1.37029096337122   -0.84390414799573
C           4.50972228558573    0.71288258535529   -0.49165956260108
C           4.47008572748963   -0.66224841996340   -0.35584213938572
C           3.19064851846715   -1.19771088069673   -0.52978522101712
N           5.51178837752936    1.60338964212406   -0.38836789392501
N           6.68937921495145    1.13409910885989   -0.16692424671646
C           7.66086461710138    2.06530715229829   -0.04134402383659
N           8.91664355351836    1.66753645455210    0.15123101063981
C           7.60490323457474    3.50902227144226   -0.05986215370822
C           6.61029968224925    4.47201009567262   -0.21222744373717
C           6.98722441966641    5.79636715482056   -0.16224999921761
C           8.31976277070019    6.17975297654719    0.03554492658968
C           9.32584768166851    5.25199408174179    0.19093101082593
C           8.94501936192668    3.91670040305806    0.13947792655641
N           9.63099504428961    2.75191917754090    0.25085599180240
F          10.97532903415280    2.64888469297775    0.44653497405832
H           5.35474595989912   -1.23069814489651   -0.13497956583553
H           2.94200637049314   -2.24096660816311   -0.46516362784617
H           5.58618533761332    4.17337176395166   -0.36444648707462
H           6.23901573519126    6.56574825180804   -0.27786976160704
H           8.56184958452647    7.23112750667290    0.06737515126189
H          10.35406357924057    5.53808180049280    0.34498278377553
