25
         -46.213633987510          0.000615914315
H           1.02127280357616   -0.11413553061084   -0.02954963729959
C           2.09084242640700   -0.03701075076220   -0.02468470182948
S           2.82254607263369    1.50850172208962   -0.02987524778964
C           4.41161338337422    0.78081173004061   -0.01772741793924
C           4.32351690561155   -0.59954952574182   -0.01015418138453
C           3.00289804532725   -1.05587041041067   -0.01420859932134
N           5.46129172379516    1.62364634057500   -0.01807861548872
N           6.63302578364753    1.09676779778259   -0.00796589769457
C           7.65470266685279    1.99271009056277   -0.00956538456506
C           7.63516484701509    3.42051634400296   -0.02075680035660
C           8.94849515491082    3.78477106268197   -0.01715845011155
N           8.91209789674464    1.55065891618272    0.00019403698345
N           9.67933426409641    2.63318727163501   -0.00454549479405
C          11.05136559806778    2.50782576140629    0.00281898923446
C          12.08189906939970    3.41877378566523    0.00099261599782
N          13.26381685059397    2.75689382968938    0.01216807163193
C          12.97504756837238    1.48570633153960    0.01918574480678
N          11.63770090447115    1.27316122094797    0.01446929102958
H          11.11913289185678    0.40886523991404    0.01838470027720
H           5.20009434844299   -1.22099217667481   -0.00223712989626
H           2.72568057749681   -2.09505154060729   -0.00962836586519
H           6.76348193857677    4.03963358959988   -0.03002830940991
H           9.42439194646705    4.74380331811274   -0.02243279619911
H          12.04589903335323    4.48839260243855   -0.00688403090088
H          13.69811729890937    0.69576297994073    0.02808761088460
