28
         -54.189203813464          0.000769224728
N           1.03714049831445   -0.31100634334384   -0.08920150958236
C           2.17711697965310   -0.17283767776975   -0.08232488222229
C           3.56466416311333   -0.02469487682350   -0.07364756729128
S           4.30702541952338    1.53954332546634   -0.07182072146451
C           5.88606779038375    0.80534718363760   -0.05939852075276
C           5.80497313023604   -0.58154730584117   -0.05723141557142
C           4.49719271162869   -1.04723742167014   -0.06525517907778
N           6.93357669049936    1.64936488653987   -0.05204395889357
N           8.10095926656712    1.10965581378746   -0.04078901472279
C           9.16107124118125    1.94427333623101   -0.02832165516431
N           9.14319250591474    3.27715387516530   -0.02601535818280
C          10.51979917873533    1.48375789948498   -0.00948416921295
C          11.26203130181469    0.30574900685502    0.00218646396505
N          12.57312735622409    0.34929759956652    0.02567885818270
C          13.18900977641421    1.54985093671517    0.03718873279171
N          14.53346359034057    1.51792097009308    0.03928356539310
H          15.04466741093469    2.37666375264041    0.12423103175021
H          14.99316596750116    0.63033301862347    0.12147368060526
N          12.60363059556617    2.74772541461310    0.03052471076134
C          11.27911484422131    2.67911330857758    0.00525003221718
N          10.39710496073300    3.70889149352494   -0.00644412377690
C          10.71386753739234    5.10629495035792    0.00170120688263
H           6.68419697058427   -1.19951072419135   -0.04984426894195
H           4.21677274593478   -2.08596554518458   -0.06500210269268
H          10.80603689795692   -0.67471119306568   -0.00516918363754
H          11.79766644537399    5.19887082137720    0.01936656631027
H          10.27959476099538    5.58232435343539    0.88195463236704
H          10.30853926226187    5.58629914119765   -0.89006585003858
