21
         -40.294270010398          0.000814310833
F           0.86238685121195   -0.28834155030282   -0.00411645709236
C           2.18451501724483   -0.12706086244100    0.01728161005345
S           2.85936297705538    1.45731288114457    0.01362533691447
C           4.46454175869733    0.75444147047456    0.04803976111540
C           4.41333287703976   -0.62474145659003    0.06069145005519
C           3.10825208446175   -1.13085045175072    0.04311749337995
N           5.49434979138812    1.62474808343392    0.05782386939912
N           6.67646631843105    1.12564297298964    0.08049995886816
C           7.68190534237881    2.03867305186320    0.09013461412543
C           7.64488252575008    3.46357492690278    0.07899729663220
C           8.95948030912773    3.83483098881970    0.09723820442283
N           8.94964291937023    1.61536095420376    0.11355284080693
N           9.69751920947752    2.69562162998316    0.11747108474483
C          11.12715574459158    2.59542410143988    0.14157013023388
H           5.30728433191547   -1.22053621330630    0.08204375993819
H           2.84810272220606   -2.17333622531404    0.04878765024130
H           6.76993494167246    4.07800267155770    0.06034873746880
H           9.42402002736801    4.80092748012226    0.09742840786027
H          11.38546140030066    1.53870608598776    0.14739949483037
H          11.52986708340790    3.07417097308556    1.03628591134242
H          11.55944576690336    3.07194848769650   -0.74037115534084
