24
         -46.452848409780          0.000698874441
H           1.08466584737807   -0.25406912080469   -0.99967812200735
C           2.13864168724509   -0.17185611598571   -0.82042742049274
S           2.88428165360865    1.36594969572684   -0.88032562890077
C           4.43837259143116    0.65084323477386   -0.51976721891274
C           4.32840124559578   -0.72089403773535   -0.36375830207483
C           3.02027068039607   -1.17858294123257   -0.53495700314577
N           5.48035512309908    1.49293790671846   -0.42304113636585
N           6.64044375029311    0.96855711972507   -0.21843332913588
C           7.64450687055406    1.86163960300876   -0.09430811382327
N           8.89739114607295    1.43494549363695    0.06668313655159
C           7.62953168685068    3.30092668409275   -0.10185969767319
C           6.75312975913630    4.37388456301619   -0.23164182013458
N           7.21488273715722    5.60918135405840   -0.19540858225572
C           8.52187729409652    5.80652182725129   -0.03871360770568
N           9.46501713986659    4.89741270629134    0.09899307656768
C           8.99248530007237    3.65398734864643    0.07510499728328
N           9.68172170019564    2.49186194686186    0.16910661011222
N          11.02452195927979    2.35724385012820    0.43917861403020
H           5.18021504272577   -1.33366163781028   -0.13162182109015
H           2.72966818510965   -2.21115327258063   -0.45375398168377
H           5.68855192343889    4.24408485394774   -0.36843230374245
H           8.84810253893453    6.83769862064862   -0.02733139496296
H          11.54478669997337    3.11618930585187    0.00916204509846
H          11.34205743748966    1.44169101176416    0.13677100446470
