25
         -46.556361248670          0.000180582426
H           1.01254567390718   -0.15465270138432    0.04816519423223
C           2.08372022177919   -0.10377933687950    0.05025034816262
S           2.85365313404935    1.42353733669261    0.04290467484449
C           4.42398857731789    0.65673918660634    0.05105751418600
C           4.30207732351176   -0.72085467407344    0.05895855070419
C           2.97042775016184   -1.14454272490674    0.05848361035215
N           5.49696574784105    1.47160886294258    0.04969291539414
N           6.65039341463561    0.90683484477499    0.05585814324758
C           7.70588062440548    1.76236423098615    0.05549532293825
C           7.74189867109735    3.19192581845956    0.04753612872436
C           9.06738777062271    3.50224997434713    0.05231814995066
N           8.94316217097521    1.26964019488480    0.06429496819180
N           9.75213001414153    2.31843001040602    0.06244842477154
C          11.11976148542520    2.15492128376766    0.07116917482476
C          11.87508826073356    1.01497894687241    0.08087132671275
C          13.21909792812337    1.45757304334659    0.08730248960463
C          13.17587966154144    2.81653245871805    0.08105821868775
O          11.89881711756273    3.25368667922211    0.07117591175199
H           5.16338447028707   -1.36342593687136    0.06483553085097
H           2.66804861723138   -2.17678982033980    0.06401224409141
H           6.89629322983027    3.84643841805311    0.03955999860743
H           9.58815884538675    4.43817200311238    0.04963416233073
H          11.50299923751329    0.01312654539810    0.08296279797913
H          14.09513122106630    0.84295198783540    0.09548941117862
H          13.94357883085252    3.56354336802914    0.08260478767983
