25
         -47.019429594053          0.000901387783
H           1.08585119480935   -0.26742862497373   -1.06214993262394
C           2.13673440378169   -0.17489826460450   -0.86858261256457
S           2.91799171952491    1.31437001339077   -1.16316850073237
C           4.44389488283598    0.64153772244064   -0.63884191913184
C           4.29818637257164   -0.68309564804990   -0.25979184495376
C           2.98576450330824   -1.13787729193161   -0.39247649023118
N           5.50567707788661    1.46542557503214   -0.65134601683150
N           6.63849987318086    0.96114266095959   -0.31923825093203
C           7.66826099762156    1.83896945874784   -0.24967706629295
N           8.89904827578502    1.38098861192090   -0.13788223275322
C           7.65988559943780    3.28892509141099   -0.19716808107828
C           6.68788240742932    4.28144095809450   -0.24985440547570
C           7.10856554814700    5.59199844616614   -0.15543836062249
C           8.45848608167579    5.92163094786475   -0.00549318641917
C           9.43956610158208    4.95243916366034    0.05544656611755
C           9.01305281776074    3.63733229271189   -0.04371982113157
N           9.71808054270682    2.44284926845090   -0.02123726003755
C          11.03226869343860    2.33348472323219    0.09063641870650
N          12.17220372695493    2.28930847744361    0.19439824434818
H           5.13026395910965   -1.26385943206104    0.09453108460901
H           2.66739350665008   -2.13593982338296   -0.14972091561893
H           5.64816912830791    4.02177701578919   -0.36704289142770
H           6.38024248103114    6.38763381272678   -0.19779538629713
H           8.73980652219967    6.96132537075901    0.06712979136204
H          10.48304358226449    5.19784947420058    0.17680307000908
