32
         -64.674618580003          0.000576715194
C           0.89681949114642   -0.37176121631278   -0.05728037555008
C           0.58710627038542    1.00118249085244   -0.04419491087659
C          -0.77457615857143    1.07871008368377    0.00656201636972
O          -1.32431325332077   -0.14206725469060    0.02583414201438
C          -0.30920487995886   -1.03897884809173   -0.01298209133472
C          -0.60526397342891   -2.43375219451614   -0.00076044465915
S           0.64743145030917   -3.61926365349222   -0.05314909038220
C          -0.53544690852844   -4.90996848651803    0.00503664907816
C          -1.82939869775800   -4.39579876053768    0.05892585402909
C          -1.86606160770718   -3.01297413888937    0.05480873382320
N          -0.06017471785176   -6.15499746528276   -0.00940728816705
N          -0.91552053575982   -7.11782641652630    0.04660889184696
C          -0.40247527909088   -8.37284168668706    0.03939259930962
N           0.87042731626310   -8.71827035942526    0.00228995532666
C          -1.23661706871016   -9.54584389377742    0.08633040374838
C          -2.58088629428266   -9.90355927857875    0.13730946591521
N          -2.93076779537259  -11.16848263867005    0.17080910388139
C          -1.96948036967225  -12.11221517090577    0.15488813286145
N          -2.38410766547479  -13.38661529951752    0.18812538088753
H          -1.70367852812007  -14.12373815357444    0.18973576252821
H          -3.36728162454477  -13.57942555454770    0.23409737444248
N          -0.64903437573455  -11.90240623157502    0.10616268068460
C          -0.32784411253650  -10.62502236117261    0.07320506853399
N           0.93193563834144  -10.07227124980150    0.02200015693672
C           2.08055793897103  -10.73423369505388   -0.00348747584224
N           3.06311291784852  -11.32042937599498   -0.02625453380612
H           1.86626520421816   -0.82430120833471   -0.09352800091531
H           1.27726578196594    1.81883789535439   -0.06872436335205
H          -1.44244285202198    1.91701131933145    0.03221050377816
H          -2.68704290639013   -5.04278851086902    0.09812748332227
H          -2.76412920430514   -2.42268156526097    0.09180675430434
H          -3.37876320030760   -9.17431712061778    0.15296146126301
