39
         -67.903909883186          0.000614653347
C           0.43246522188343   -0.55869257619887   -1.95135181302321
C           0.29399969411599    0.82410023231835   -2.15963049291321
C          -0.94923628424117    1.28084968817200   -1.85122685697969
S          -1.98479973357930    0.02770647924660   -1.29681484329412
C          -0.71458104001325   -1.15167880023260   -1.48307993799206
C          -0.93442821358857   -2.52142052788500   -1.16877440804934
S           0.32847665508231   -3.69848825552070   -1.36531472868143
C          -0.73559263459828   -4.97788049729198   -0.82717230084366
C          -1.98923540865620   -4.47798239781816   -0.50699983570078
C          -2.09449913472137   -3.10626455646123   -0.69607686759524
N          -0.19951007229883   -6.20188209267977   -0.72850604320041
N          -1.00065077848705   -7.18706721493074   -0.49859102845194
C          -0.41205239928886   -8.39008487554884   -0.31228298726979
C          -1.13654551290121   -9.55545950492157   -0.15404359047828
C           0.98310085224005   -8.76521488529322   -0.21379874967573
C           2.16992839178896   -8.04449535841107   -0.26209549951907
C           3.35663323843820   -8.72707361880893   -0.08507704817516
C           3.37075674693977  -10.09962228636351    0.15435259551532
C           2.20191792183497  -10.83548498217758    0.20404435557893
C           1.00914301179972  -10.15934513438562   -0.00044340465476
N          -0.30225793191307  -10.61843112042106    0.01142531801772
C          -0.71874479894259  -11.92440652943488    0.17031028928854
C          -0.12239509251537  -13.07040268297190   -0.27209416630935
C          -0.84624596386596  -14.22828669789427    0.08469554715843
C          -1.97695423290831  -13.95365091971789    0.78098773268855
S          -2.19256052617555  -12.26606078365601    1.03606884006735
H           1.33559021732492   -1.11293634761359   -2.13401635157429
H           1.08525373743270    1.45526280236611   -2.52294856047114
H          -1.32652680055369    2.28200136530609   -1.91390337234072
H          -2.77254778683117   -5.11725647818209   -0.14193400405100
H          -2.98618291841718   -2.53413766420872   -0.50503160239514
H          -2.20137624906922   -9.68588348361836   -0.17145692073901
H           2.14656349051008   -6.97998034476053   -0.42959068281829
H           4.29267770920766   -8.18990585283978   -0.11972439560271
H           4.31487960520861  -10.60021633112281    0.30993327451109
H           2.22494585823426  -11.89259113444230    0.41719426390342
H           0.77507241051113  -13.08635658415783   -0.86177430731846
H          -0.53646694432428  -15.22341614151829   -0.17867368296123
H          -2.70990430466379  -14.63583390591973    1.16224626635077
