31
         -59.807971544409          0.000612774232
C          -1.17149312663375    0.04408045037234    0.00754586514420
N          -0.42487488188440    1.16645917251484   -0.02059044567397
C           0.82062118075229    0.77264214856575   -0.05835406226954
N           0.92251513759665   -0.57401886705360   -0.05609628353218
H           1.76078638968753   -1.13197411703581   -0.08069590996732
C          -0.35562037657155   -1.07616476667081   -0.01377629432977
C          -0.65925700402657   -2.46657416824607    0.00358840797865
S           0.59139007766683   -3.66948359811579   -0.02174893931788
C          -0.59354055963214   -4.95399093463114    0.02032309439050
C          -1.88127943600089   -4.43371817887142    0.05170961390719
C          -1.91598215631746   -3.04722125996185    0.04263804740220
N          -0.11169250287839   -6.20031563368067    0.01821949291982
N          -0.96883380559333   -7.16195466320299    0.04581871669454
C          -0.46093415040006   -8.41745834763204    0.03850938966083
N           0.81879597047105   -8.77022350600095   -0.01312403298258
C          -1.28677343972001   -9.59170000385926    0.07960810777449
C          -2.62663845551814   -9.96226449339969    0.13273062045242
N          -2.96452798677772  -11.23121075155463    0.15065187207115
C          -1.99244285749831  -12.16508771971936    0.11880594161347
N          -2.40665790477663  -13.44496968276757    0.16939800900919
H          -1.73287645709743  -14.17922882941050    0.05539045352917
H          -3.39050932958263  -13.63254002125537    0.11396077322951
N          -0.67726078989086  -11.95068222076795    0.06272768982841
C          -0.35986452749993  -10.66423419490884    0.04690923170939
N           0.87121258546262  -10.10555734193489   -0.00789470270009
H           1.76222867072130  -10.57512422608648   -0.04428649643029
H          -2.24051302772023    0.09279759721008    0.04135598918704
H           1.66709390510219    1.42887997074373   -0.08767055748956
H          -2.74211765557749   -5.07683001365810    0.08066977030653
H          -2.81927448555694   -2.46500260341237    0.06315808505757
H          -3.43318900030560   -9.24231919556875    0.15825855282700
