33
         -60.071576611330          0.000587997444
N           1.22538880064075   -0.72151157515591   -1.41871608685337
C           2.33603693045705   -0.51101105231036   -1.21258917831610
C           3.68421863122246   -0.27314375813443   -0.95288680344955
S           4.41473335049120    1.26348472134005   -1.30454093280132
C           5.95816155595789    0.67451661265505   -0.74682062285900
C           5.87008722599601   -0.63650000990891   -0.29903270910282
C           4.59030166380680   -1.16533933488226   -0.41307056827107
N           6.96652487438827    1.55973905918531   -0.69746035693231
N           8.16300809935430    1.10502824968100   -0.57597910176392
C           9.13639392271216    2.01744868869950   -0.37644312340285
C          10.47401233770219    1.66279816246541   -0.31349979625041
C           9.08690759731706    3.44755687950282   -0.15896641744337
C           8.05051990289957    4.37077608610056   -0.09208285203977
C           8.36833937737873    5.68945306520732    0.16434570318074
C           9.68808047817808    6.09071112009206    0.36591754973220
C          10.73378730930804    5.18981516553915    0.30170523009646
C          10.42003649654424    3.86880209994457    0.02306792644122
N          11.24457833046858    2.75645583609458   -0.08508353513685
C          12.62358536472033    2.75166365097861    0.02177735905685
C          13.58618313303507    3.65515433487204   -0.35801796407756
N          14.81322784056669    3.17910161761210   -0.03536402693304
C          14.62290163115894    2.02102968799026    0.52431670397598
N          13.30520045799439    1.70142420320359    0.58644642469971
H          12.89271122374732    0.87265811093692    0.98210110214034
H           6.72132725339747   -1.15527087505409    0.10265220629680
H           4.31494031132581   -2.16519581231306   -0.12628187959653
H          10.90029494118479    0.68808809476881   -0.45519838743758
H           7.03131830138333    4.05131124905270   -0.23684878219847
H           7.58161818799207    6.42663423411385    0.21898449588774
H           9.89824361581805    7.12767560959260    0.58014230574497
H          11.75114739307698    5.50210983534541    0.47498613639431
H          13.47198154173514    4.59321137835554   -0.85918489127867
H          15.39879191803763    1.38191466442678    0.89277487249699
