28
         -49.344159672192          0.000640363228
N           1.27503273747747   -0.41320244258456   -1.40759460014408
C           2.57832161048017   -0.22252757797279   -1.04640207146750
S           3.28083345260683    1.36000833469411   -1.06420110278030
C           4.85191424967403    0.69561243063150   -0.61734935675033
C           4.77031270895772   -0.67746234101085   -0.47019978990795
C           3.49840478864796   -1.19252047704154   -0.70803227199548
N           5.84871826504976    1.57355208643052   -0.48405423391340
N           7.01892749541125    1.10732089731972   -0.19077698299234
C           7.97817955507391    2.04770265357345   -0.03799271587091
N           9.23681549488716    1.66725553809507    0.16009127124990
C           7.90008590762980    3.48824200886865   -0.02313137549807
C           6.89200835443127    4.43748719083875   -0.16944675514976
C           7.24384062422060    5.76597151468078   -0.07875975925019
C           8.56618416747482    6.16369849947921    0.15680615716341
C           9.58132682452037    5.24658722743233    0.30905478995226
C           9.22815841971220    3.90445293339192    0.21686165138068
N           9.96784950732992    2.76390848193456    0.31259503412356
N          11.32815816550412    2.69751721590677    0.55481015942856
H           0.67695029105033    0.39643542400450   -1.40553994005531
H           0.84446400018595   -1.27410030486521   -1.11117464726879
H           5.63220985300785   -1.25717850468585   -0.19374613046322
H           3.24597467249690   -2.23597649435577   -0.64276798040364
H           5.87596275022727    4.12642832861353   -0.35042069092369
H           6.48533548172019    6.52682939689317   -0.19038186320701
H           8.78999738682859    7.21839697262432    0.22197738048689
H          10.60105012614413    5.54154763885333    0.49927316044145
H          11.85626099080837    2.76614545604293   -0.31603104084795
H          11.52767211844178    1.79591791220716    0.98087370466279
