32
         -59.718493749060          0.000366895399
C          -1.22617625023379    0.12700626892691   -0.09400815191696
N          -0.49263825961627    1.25638840285531   -0.00920403216812
C           0.74771348293211    0.87288157108313    0.13499105820385
N           0.85909694956613   -0.47370101061667    0.14958481909862
H           1.69612786809984   -1.02546538427074    0.24680573310849
C          -0.40726733826604   -0.98574838378836    0.00177006574551
C          -0.69750394516789   -2.37947041977260   -0.03325607733322
S           0.55616551921728   -3.56920478843621    0.15090473650731
C          -0.59981972032411   -4.86877771155562   -0.02810233307446
C          -1.87808578996048   -4.36630094049635   -0.20952541644368
C          -1.93047177601059   -2.97730537896022   -0.20900723930753
N          -0.11177393353938   -6.11305994624381    0.07082498449807
N          -0.92643583800831   -7.08822126704047   -0.15419950039605
C          -0.40731096550976   -8.32938720340875   -0.00049383688081
C          -1.14531254278771   -9.47527400130139   -0.25472743801163
C           0.90351816094684   -8.76906803874424    0.42749901072137
C           2.06343433046424   -8.11090240255419    0.82318764694549
C           3.15917821209378   -8.87017667783253    1.18000149306273
C           3.12419862623033  -10.26520039636447    1.15065423822865
C           1.98819713271955  -10.94713827226188    0.76396718625941
C           0.88790447033656  -10.18334785278462    0.40711939188930
N          -0.36084981367810  -10.54237254628779   -0.01025645242395
F          -0.78100647387397  -11.83874461012483   -0.16304220765353
H          -2.28920655907617    0.16669364929393   -0.21580283685855
H           1.58456223055749    1.53517027593351    0.23064041724467
H          -2.72344622458122   -5.01908440694210   -0.32955907319604
H          -2.83316344070176   -2.40798038929796   -0.33659560248522
H          -2.15696776623469   -9.57818978517119   -0.59113829343708
H           2.08875951054540   -7.03356893270119    0.84387134683101
H           4.06844231785687   -8.37751914418437    1.49022500732988
H           4.00346591388063  -10.82197632702749    1.43698714809938
H           1.95191191212301  -12.02528394992149    0.73915420781451
