36
         -69.672468955077          0.000745251123
C          -1.70664116647686   -0.15806884079225   -1.52723082246951
N          -1.05013399378304    0.98500102121679   -1.80467701593568
C           0.21278760564919    0.66288740113428   -1.90946017196726
N           0.41305756860786   -0.65733205909747   -1.71032300312793
H           1.28519765283039   -1.16092504241612   -1.73556944242149
C          -0.81598663466459   -1.21939101866678   -1.46000298594839
C          -1.01746948183497   -2.60311233809793   -1.20196755363338
S           0.30868127201842   -3.72142774862138   -1.16303385168214
C          -0.77734276067498   -5.04990193412142   -0.82034589259509
C          -2.09253629878891   -4.60483117435042   -0.74543653844807
C          -2.22339155494142   -3.24196567833189   -0.95737870293072
N          -0.21606087674110   -6.25172972134523   -0.67990474303262
N          -1.00218273118794   -7.25232258115058   -0.44306818613172
C          -0.36261676807729   -8.43236111803879   -0.30039117839393
N          -1.05724489611782   -9.53917498247061   -0.07552445674814
C           1.04615983578757   -8.74661266233354   -0.34177969583881
C           2.27718368012389   -8.12770121155905   -0.52231865654842
N           3.38570285257089   -8.84346010943466   -0.47769541071035
C           3.29530247049133  -10.15122987527129   -0.25859169201417
N           2.20319662183565  -10.86648211678977   -0.07179983056746
C           1.09125155660890  -10.14434957406504   -0.11786026943563
N          -0.19822811732663  -10.56139225105321    0.03335385259421
C          -0.65368002451007  -11.83889020060970    0.26709915189624
C          -0.00835225568592  -13.04328446783561    0.42283286348275
N          -0.92936515310523  -14.01292268862336    0.63458804391039
C          -2.09583085617482  -13.43052524700409    0.61019516460649
N          -1.99019970028595  -12.09785512895479    0.38888827326976
H          -2.70887392489791  -11.39496663201017    0.31863834624578
H          -2.76833393809468   -0.16650823830405   -1.39023910790685
H           1.00201618623818    1.35419779825948   -2.12719355844232
H          -2.89824951011517   -5.28598217236031   -0.53988116907316
H          -3.15964243818546   -2.71450099203206   -0.93960640972884
H           2.37676925651369   -7.06619156758183   -0.70174471734616
H           4.23011392940589  -10.69439950621045   -0.22970237192152
H           1.04145448154549  -13.24543074351637    0.39257156436420
H          -3.03218188855346  -13.93181659755765    0.74700017463194
