35
         -58.241823962884          0.000938756094
C           1.09329484036226   -0.41874660350151   -1.11085729983503
C           2.55416746445644   -0.22884296540155   -0.91558864448676
S           3.22532601726811    1.35646447835199   -0.75755015663824
C           4.83476137229356    0.69592129248338   -0.56065130883492
C           4.80675266425289   -0.68350599991050   -0.61844778478225
C           3.52060065482304   -1.19405037352469   -0.81838293490243
N           5.83095109388503    1.58366151877223   -0.39361171457546
N           7.02077633115795    1.10692868280371   -0.25412396472472
C           8.00533952105392    2.02296310158694   -0.09392881187318
C           9.33241268196227    1.66555667594664    0.03107580833231
C           7.96681172102434    3.46820781039895   -0.02037218840796
C           6.93599715704338    4.39897280969001   -0.06323232734978
C           7.25469672073519    5.73462150385102    0.07610457342243
C           8.57170362226287    6.14562812867857    0.27378298116476
C           9.61179580322764    5.23700486011323    0.31553607815970
C           9.30068661466740    3.89639748126450    0.14726975646939
N          10.11685146124865    2.77257122195059    0.15702128980750
C          11.49221379628848    2.74828132962832    0.26554132321338
C          12.40291756752748    3.63948593412070   -0.22451957974322
C          13.73242439353494    3.27735783829450    0.08198636076070
C          13.81873983022175    2.12286766223620    0.78727498806877
S          12.27299001586589    1.44092911228133    1.11409403568192
H           0.71218913823741    0.27384564890793   -1.85894851302732
H           0.55631916808071   -0.23061885334354   -0.18032311929517
H           0.88673807017951   -1.43791263473062   -1.42911325712004
H           5.70023278602910   -1.27237173937200   -0.51804375204190
H           3.30191565203259   -2.24532559216256   -0.89286375175193
H           9.76136023327611    0.68212517141675    0.02047169507480
H           5.91851481066063    4.06904903329197   -0.19697853190712
H           6.47215769472387    6.47796166954711    0.04461883014229
H           8.78488881152213    7.19656654382307    0.40110353847077
H          10.62360663666912    5.56508971453078    0.49478045203705
H          12.13937329539417    4.49923221750391   -0.81202843091760
H          14.58684772702266    3.85322742426272   -0.22442887332733
H          14.69659463101135    1.61826589621070    1.13707323473556
