34
         -58.958382178809          0.000809080123
C          -1.26316039727053    0.11454950778859   -0.00288783894203
N          -0.54226127512134    1.25290453291560    0.09135503557208
C           0.70533585124111    0.88289130067652    0.19971667789553
N           0.83396783307811   -0.46268675262628    0.18103699200614
H           1.67785216752862   -1.00835114925722    0.24757049853909
C          -0.42849127707332   -0.98817620404477    0.04936831933424
C          -0.69854583241000   -2.38570667077449   -0.01177578759624
S           0.57978114117566   -3.56003995685637    0.12352269599717
C          -0.55599551971389   -4.87516780351932   -0.06957918602452
C          -1.84469507512361   -4.39053778807711   -0.21496578307366
C          -1.92157427811485   -3.00157502817737   -0.17875268553363
N          -0.05251195587309   -6.11488282085132    0.01600012906604
N          -0.84231394400317   -7.09433746413364   -0.28018649042850
C          -0.33754695400528   -8.33302286797838   -0.10782136352322
C          -1.04486867076094   -9.47755363604282   -0.46037145444352
C           0.92186074643860   -8.79174722544924    0.43015516193755
C           2.04506782170644   -8.15308971034821    0.94466262513168
C           3.09463982618944   -8.93205842422311    1.38718052239738
C           3.04445449970164  -10.32598966062821    1.33028286356307
C           1.94172247786663  -10.98465682704552    0.82549480641669
C           0.88591022577522  -10.20294783900202    0.37852716613198
N          -0.31665842785568  -10.57551371098675   -0.17695146844016
N          -0.71536865009962  -11.90001674758837   -0.33574950935733
H          -2.32914005867647    0.14319590285717   -0.09982826220452
H           1.53613204273646    1.55334065639539    0.29190437398684
H          -2.68188684853968   -5.05434674529822   -0.33238813345855
H          -2.83705537076826   -2.44641805520086   -0.27654984678245
H          -2.02599040923869   -9.54426981128434   -0.89061348534065
H           2.08012060168756   -7.07661378131889    0.98851738046463
H           3.97703768691825   -8.45766981560236    1.79031513515185
H           3.88525899663762  -10.89963165465133    1.69110595022160
H           1.89404585168373  -12.06236443994008    0.79164551436703
H          -0.05848857261123  -12.40010192659078   -0.93203585329424
H          -1.64225425310419  -11.93001738313462   -0.74899469973755
