33
         -59.592079612643          0.000935344222
N           1.32277563420059   -0.77796903412252   -1.50014366638951
C           2.43215758877662   -0.56608705102592   -1.28802284170006
C           3.77866320644459   -0.32714081481145   -1.02235040672205
S           4.51671708766435    1.19951987252717   -1.40243692255588
C           6.05353254070341    0.61950631085891   -0.81790764897162
C           5.95807569269201   -0.68078759525132   -0.34129611705140
C           4.67799187629549   -1.20886712237540   -0.45462832544051
N           7.06438766105292    1.50248739202236   -0.77531936528029
N           8.25657741268266    1.04384026515946   -0.63048553518800
C           9.23306458721239    1.95211088277324   -0.43030953921800
C          10.56613012046451    1.59124752466074   -0.33331689614098
C           9.18784040640989    3.38719176502157   -0.24178043097852
C           8.15406673923281    4.31456591188094   -0.20899995685099
C           8.46977158160816    5.63546442161948    0.03992122861325
C           9.78520879593118    6.03253692565270    0.27081506963556
C          10.82865747933965    5.12659636794401    0.23831461871358
C          10.51956791390558    3.80421431436172   -0.03860483162989
N          11.34022939998338    2.68394848880021   -0.11852118218402
C          12.71512469612977    2.65900765359593    0.01799284132911
C          13.63061285526539    3.57920142659332   -0.40386668934605
C          14.95403712793529    3.20922352594848   -0.08243798689515
C          15.02905556464962    2.02226684328958    0.56888925374227
S          13.48255217006498    1.31587209860709    0.81906712147104
H           6.80506343341465   -1.19121414742125    0.07965244416633
H           4.39790914507585   -2.20136588844929   -0.14742519150800
H          10.99712032796901    0.61253518775719   -0.42194736043786
H           7.13698199401641    3.99635615105209   -0.37097463835298
H           7.68470343881237    6.37589017862465    0.06901287596422
H           9.99498714384102    7.06985145868118    0.48431553423454
H          11.83990588481433    5.44091986284839    0.44255269875669
H          13.37514613586678    4.46517294866081   -0.95426359062032
H          15.81277071492200    3.80336717036121   -0.33579249069681
H          15.90077364262442    1.50632670415044    0.91771792752712
