36
         -65.918905371963          0.000534000853
C          -0.79762879722969   -1.03458060269726   -0.14389622079133
C           0.40769301078252   -1.26585147978252   -0.64921784456670
S           1.52094525198611   -0.02154248151940   -1.21751588995762
C           0.69960599165080    1.36019060313134   -0.49570755089343
C          -0.53546788792978    1.34140426078536   -0.00749328369567
N          -1.37215858314926    0.22481872944572    0.03132571985833
C          -2.69253018249277    0.35243722013507    0.35970532557045
S          -3.66386145818576   -1.03714604623986    0.75433760866449
C          -5.07427199728219   -0.01964822351051    1.01089464088290
C          -4.75547777002453    1.31191781916485    0.78898291503776
C          -3.43421718518127    1.52254852692760    0.42220002196913
N          -6.20002766104123   -0.64788892539454    1.33955524692492
N          -7.24475128864598    0.08443746751140    1.55465350477762
C          -8.38747473523736   -0.57493872230412    1.84782636064794
N          -8.58255438663594   -1.88975036934290    1.87639208128085
C          -9.61591849113879    0.09976258491298    2.15982410578650
C         -10.13286437119569    1.38043392000250    2.31012309356472
N         -11.39789475133433    1.55606049099684    2.62331371133683
C         -12.18069572195499    0.47274463005648    2.79538942287199
N         -13.47933496661880    0.72600439921039    3.06840910374799
H         -14.06470193910603   -0.03714740611224    3.35526562010168
H         -13.73320703754092    1.66953853201862    3.29782930663555
N         -11.81709126565442   -0.80423097972699    2.69439761458246
C         -10.53678983032749   -0.95699731336936    2.37281450340392
N          -9.86273538617818   -2.11332770732893    2.18945784267578
C         -10.38661661754644   -3.44329273904688    2.28989267404952
H          -1.41562425396672   -1.85699956513987    0.18433190665985
H           0.79869089409749   -2.26324303639899   -0.73788251373657
H           1.30379385297992    2.24881076194512   -0.46074507682667
H          -0.94519456294045    2.23188653648359    0.44270940398674
H          -5.49642034380051    2.08400520826237    0.88959474772170
H          -3.04303418746092    2.49466133910650    0.18236997872045
H          -9.53501283733079    2.27286095575520    2.18327297240685
H         -11.44054881494860   -3.36435982616478    2.54799173115315
H          -9.85007116989203   -3.99927280367906    3.06039028982784
H         -10.26987051952553   -3.96386575809450    1.33805692562087
