31
         -55.807820988614          0.000311749831
C          -1.17853511303014    0.07043024741279    0.01043232170588
N          -0.42545001428026    1.18912535231265   -0.02322507115002
C           0.81732283390556    0.78810219737224   -0.06830502800973
N           0.91105843944342   -0.55922589718708   -0.06573255906576
H           1.74481591546099   -1.12368472766880   -0.09466820888759
C          -0.36972052392137   -1.05406026328730   -0.01506663126190
C          -0.67659418729250   -2.44441271642247    0.00341136617592
S           0.57603608887911   -3.64596862289290   -0.03699878789530
C          -0.60642074369966   -4.93389195601738    0.01485951171182
C          -1.89325165922793   -4.41523599367831    0.06005088326181
C          -1.93047449313626   -3.02752484222533    0.05363232134862
N          -0.11467899474387   -6.17675520714596    0.00497023279072
N          -0.95805423369633   -7.15068601294171    0.04320495787257
C          -0.42915271222934   -8.39660163544426    0.03348180022360
N           0.86048706363608   -8.72246331593875   -0.01245248627344
C          -1.23152899328020   -9.59031129690932    0.07431178975880
C          -2.59236611397317   -9.87583644980131    0.12848424968065
C          -2.97003052192763  -11.19991839522467    0.15489536830013
C          -2.02578982306338  -12.23398131884587    0.12859393887981
C          -0.67387934576352  -11.97836618397548    0.07493478677561
C          -0.28858499589643  -10.64220475397253    0.04808244782118
N           0.93638937956394  -10.04682266898470   -0.00365800285344
H           1.84048554997730  -10.49199535399899   -0.03402776020445
H          -2.24704101169255    0.12539496794841    0.05063190397311
H           1.66755704685143    1.43920917822920   -0.10338321505385
H          -2.75363602730888   -5.05867051712348    0.09604367291834
H          -2.83477904166642   -2.44709525020122    0.08434588046161
H          -3.31625430143936   -9.07701948059644    0.14863239263853
H          -4.01808448297068  -11.45655120261222    0.19698223228533
H          -2.37098271132442  -13.25698361220074    0.15115560657107
H           0.05533772784650  -12.77381426797817    0.05463008550034
