27
         -49.834209538585          0.000777601815
C           1.16659559088406   -0.40866749287039   -1.22622425790084
C           2.61592734240269   -0.20223464517468   -0.97632414558267
S           3.26615150344746    1.38631092245989   -0.79765258097780
C           4.86956512096602    0.73778551341693   -0.52791604954411
C           4.85571793151286   -0.64469834452936   -0.58233609936004
C           3.58559531048804   -1.16338952886599   -0.83572932212416
N           5.85383257548324    1.62744122229802   -0.32354656503611
N           7.02953993019624    1.15119238015327   -0.09846283065644
C           7.99818636269765    2.07818544335135    0.07931581499900
N           9.23374061520480    1.67289571921040    0.35985063694183
C           7.96313524187057    3.52104299733567    0.00746689797347
C           6.99496387578604    4.48978851307048   -0.24570244732531
C           7.38665709795182    5.81049274079397   -0.22237088365258
C           8.70969004884346    6.18538403146937    0.04398033736553
C           9.69051643102743    5.25226529235748    0.29631421335874
C           9.29453659853865    3.92048482760420    0.27314359737959
N           9.95675643312085    2.75404696848520    0.46622952410889
F          11.28432530227117    2.64321687402062    0.76116789106368
H           0.79646305404496    0.30537543321281   -1.95948730859365
H           0.59829346638399   -0.26432768862428   -0.30604692301822
H           0.98746541326993   -1.41920242959775   -1.58663158778565
H           5.75052101717252   -1.22228792552664   -0.44100409642168
H           3.37495345202950   -2.21503910270284   -0.91491646689031
H           5.97786551929195    4.19781924876651   -0.45024529651911
H           6.65838454532851    6.58401016915188   -0.41393047736945
H           8.96481453130589    7.23430464139519    0.05033632884382
H          10.71194568847944    5.53121421933718    0.50100209672375
