31
         -56.155783176738          0.000421074515
H           1.17042140974032   -0.36953458478658   -0.90652268087546
C           2.23080613092632   -0.26564629512844   -0.78517085276568
S           2.93183564602837    1.29473453210962   -0.81560264424110
C           4.52246582338677    0.60904618498213   -0.57831753707502
C           4.45760920319045   -0.76969366619419   -0.48170522656361
C           3.15360658110329   -1.25772871941291   -0.60013951385317
N           5.55064399228843    1.47425849678762   -0.51184012800219
N           6.72706600105950    0.96476979943441   -0.38306058873032
C           7.73477831485415    1.86100831661873   -0.29497830219481
N           8.98288586823949    1.42071453580074   -0.21869391470117
C           7.72021459179751    3.30621463152498   -0.25334249219575
C           6.73602466670520    4.28822563042094   -0.29105219075554
C           7.14186622026637    5.60382580556773   -0.22412444305526
C           8.49316987668621    5.94710142047569   -0.12025346274334
C           9.48566197410274    4.99053907136389   -0.07851382642395
C           9.08014840600778    3.66347767231357   -0.14646313058749
N           9.78805771729113    2.47921471255421   -0.13261117834524
C          11.14744982194523    2.28466506196711   -0.05530790707321
C          11.85866848537976    1.11451985146386   -0.06682230890484
C          13.21546982325299    1.49978509186989    0.03647134067153
C          13.22544741426398    2.85762174411939    0.10226114864777
O          11.96714748408528    3.34740198403169    0.04695564746343
H           5.33845648774033   -1.36635567814397   -0.33011817756397
H           2.89569465227475   -2.30109957851323   -0.55222672431000
H           5.69707067765353    4.01301848703275   -0.37188883965736
H           6.40424907138393    6.39194658214716   -0.25232824271468
H           8.76594319440606    6.99084399267515   -0.07064658171559
H          10.52581428137333    5.25929249573336    0.00347944531765
H          11.44868227084750    0.13032643944363   -0.13994754553994
H          14.06547045395669    0.84984401463670    0.05795730231135
H          14.01922345776259    3.57189196710463    0.18609355617740
