28
         -53.729863991143          0.000530715687
C           1.06678338208234   -0.08424507633768   -0.46065980476507
O           2.42524813649156   -0.00107177073112   -0.08962729413789
C           2.94725503651428    1.21789143658440    0.05074491717506
S           2.04949031839422    2.67686945539047   -0.20098717012678
C           3.46810825753656    3.63957632035911    0.18696831375305
C           4.54594492914897    2.82108183662739    0.48620455422364
C           4.25631773123326    1.46292996525754    0.41099169235890
N           3.30581214956152    4.96321345655219    0.14746035099813
N           4.32813701904100    5.69653639043018    0.42426529624988
C           4.13022065448980    7.03759537575881    0.38630327445800
N           3.00809650761810    7.68264984715069    0.09296563482516
C           5.17044242633492    7.98278107910410    0.68213621663115
C           6.51022559598448    8.02380459724405    1.05225106186752
N           7.11342181512708    9.17597532639782    1.23917360970729
C           6.41153489545313   10.31340679645244    1.06425676020814
N           7.09947848346031   11.45954329276902    1.23698250279182
H           6.59802870540108   12.32859833609173    1.23449887291640
H           8.02795022377648   11.40427632226587    1.61325311653799
N           5.12822378525063   10.41878220190019    0.71853243732778
C           4.54077886567421    9.24481925232852    0.53326024535675
N           3.25944546051535    8.99465280092396    0.18208028978701
H           2.52754217302350    9.66115853411673   -0.00605653493794
H           0.83439956160074   -1.14498172083953   -0.52473087121951
H           0.89698370122855    0.39602704535046   -1.42895114139782
H           0.42832149209404    0.39499304830112    0.28758853011549
H           5.50292908116719    3.23371208113352    0.74933531298482
H           4.95541240638482    0.67136639617643    0.60697607835462
H           7.10370720541185    7.13240737324162    1.20305374795640
