38
         -69.814346535467          0.000833491446
C           0.31514933673516   -0.47193011657434   -1.83952780731090
C          -0.10647756331714    0.86571015925199   -1.97533758326479
C          -1.44126994149935    0.86955050853994   -1.69700347371565
O          -1.87294988549346   -0.36489738976925   -1.40079979128717
C          -0.80405646773362   -1.19323450902055   -1.48556658947373
C          -0.97738375327301   -2.58496276760951   -1.22146256415952
S           0.35427128875366   -3.68654083902317   -1.30474047573315
C          -0.69374756873260   -5.02597928263125   -0.89248786295078
C          -2.00000476952353   -4.59551415680156   -0.70220892989202
C          -2.15523190795663   -3.22915960206489   -0.88514542579555
N          -0.12661922419684   -6.23505145311225   -0.78280899425682
N          -0.92383175282226   -7.22469671646761   -0.54786776819345
C          -0.32288662537844   -8.42034994035684   -0.37651580546601
N          -1.07300512367692   -9.49838879893375   -0.19262917199990
C           1.07688217774451   -8.78067212696045   -0.31963506216388
C           2.28062809521834   -8.09357286512309   -0.42982171303854
C           3.44583089671232   -8.81895939255617   -0.30118670330692
C           3.42584219606108  -10.19710198867339   -0.06696671600002
C           2.24391039784978  -10.89877960522452    0.04599944858289
C           1.06793889624926  -10.17078473422633   -0.08348490931557
N          -0.25969670087118  -10.54120237256980   -0.02095148675523
C          -0.80233838140415  -11.78806070276607    0.18275878305591
C          -2.11828322435330  -12.16500401694218    0.22399783623458
C          -2.10175235950197  -13.55827156056466    0.46557648618777
C          -0.79353576703605  -13.91778861220413    0.55159811541891
O           0.00902537350148  -12.84384345242426    0.38018999056891
H           1.30120069475176   -0.86517328760253   -1.98034278576244
H           0.49771886700098    1.70827307637357   -2.24291523316476
H          -2.16734502494980    1.65840801073476   -1.67689386444580
H          -2.78031236851760   -5.28544725608048   -0.43618335346098
H          -3.08645804589856   -2.70058080276652   -0.78417028871126
H           2.28427472923286   -7.03105055827616   -0.61120075796298
H           4.39879536831022   -8.31733966413344   -0.38113355259067
H           4.36280526584547  -10.72539645044596    0.02940839316517
H           2.23287325833404  -11.96068155056464    0.22829365618772
H          -2.96109122276094  -11.52043304845558    0.09669778743826
H          -2.95203973837100  -14.20117988030491    0.56160400705642
H          -0.31183942502799  -14.85889225366805    0.72348416628614
