31
         -59.747171807613          0.000402399086
C           0.79505218210152   -0.41335875133874    0.32726605365101
C           0.55976022105161    0.93495202547600    0.31022492597480
C          -0.81933306088428    1.05227276868452    0.04554293293601
N          -1.37910921444696   -0.12702534735168   -0.09015216808538
N          -0.39705980948756   -1.02119260273227    0.08182202957572
C          -0.65227668386247   -2.36692790881515    0.00059229589010
S           0.59309937480520   -3.53813792611937    0.25320301805766
C          -0.55260735917414   -4.83536113192962   -0.03453983236644
C          -1.81671484060562   -4.33171154627500   -0.30081933608148
C          -1.87338622465665   -2.94258536979418   -0.27884889318375
N          -0.07039197689969   -6.07835486948687    0.06530824359737
N          -0.87572796555847   -7.05260857924320   -0.20487887925650
C          -0.33950348356581   -8.27819285210940   -0.03915518425682
N          -1.04728667204576   -9.36439138102677   -0.35254718199172
C           0.95211462340662   -8.67884619197695    0.45491501991045
C           2.14302211361285   -8.14016498024284    0.93071037794947
N           3.13599471400828   -8.93845703956377    1.27457016182463
C           2.97756218889893  -10.25453367914877    1.15601085316849
N           1.91383440767934  -10.90514658861056    0.73112991548533
C           0.91188489329716  -10.09615063036278    0.39698725215314
N          -0.30769336029031  -10.42640127956252   -0.09050361117364
N          -0.81526043242356  -11.69790350448053   -0.22967325383845
H           1.68835294680398   -0.98198555472568    0.48778022187069
H           1.26379210688580    1.72591119148291    0.46364598011959
H          -1.40726874136278    1.94320012591899   -0.04832165898303
H          -2.64699966622969   -4.98548202715617   -0.49599816991762
H          -2.75177425392066   -2.35055120944446   -0.45715228837979
H           2.30328179421338   -7.07567558356684    1.03017422220626
H           3.82576940086631  -10.86207791279672    1.44123646279127
H          -0.07357407955683  -12.34408908548925   -0.48218455515604
H          -1.57657314265854  -11.68926257821382   -0.90112495449226
