25
         -55.236360713266          0.000357737869
F           0.98335497853697   -0.14933006802457   -0.08372372112906
C           2.30440780550912   -0.02025318154352   -0.06046950305937
S           3.02003960228214    1.54143140863781   -0.07384823391776
C           4.60540747806892    0.79298821328085   -0.02821639558585
C           4.51362681797648   -0.59051591037161   -0.00618719086845
C           3.19960181778333   -1.05634590922880   -0.02523722948278
N           5.65379539209894    1.62665741030076   -0.02511122783814
N           6.82366583713757    1.09967602222424    0.01634495932621
C           7.87385350433298    1.95952090932349    0.02356798308668
N           7.82904475825007    3.27854589209530    0.02379172877687
C           9.23914622603979    1.50620667345397    0.04379538984277
C           9.97760423744566    0.32498554453458    0.05363756543329
N          11.28849539489967    0.36323800096425    0.07379486290418
C          11.90850572684376    1.56019294261376    0.08439322255463
N          13.24744836792135    1.53763569333606    0.10951441318367
H          13.75260760331733    2.40467020338160    0.10850768743197
H          13.72106510904056    0.65329075555622    0.10666055677269
N          11.31801551280183    2.76108859462514    0.07481356481466
C          10.00304213332891    2.69262659355058    0.05510121081044
N           9.10182834196331    3.73445408387835    0.04276598356555
C           9.39675350463824    5.02840188376363    0.04843997520949
N           9.66829660157908    6.13971380606173    0.05323043099015
H           5.38941779388543   -1.21271151251876    0.02116183019146
H           2.90635396820117   -2.08995403656790   -0.01390789471019
H           9.51517148611739   -0.65210401332717    0.04510003169694
