33
         -62.912375201866          0.000967189097
C          -0.54460754857075    1.36720775898019   -0.20759644434143
C           0.78148745811218    1.40291199202386   -0.27549981697658
S           1.85036438237762    0.07540229466054    0.17277652986259
C           0.62703602857857   -1.19274590515910    0.20676715631901
C          -0.68341344576046   -0.98182583884269    0.23009089438355
N          -1.29968587639123    0.27060168233477    0.21499439104272
C          -2.63374755093213    0.39602636705976    0.47676733046791
S          -3.62534703783376   -1.00409898198616    0.77017803700013
C          -5.04750748586866    0.00738293755639    0.98602579318448
C          -4.71590290266588    1.34546435790201    0.83861592429803
C          -3.37388619948893    1.56601857761559    0.56558714373377
N          -6.18067228857604   -0.62292317504067    1.28813068350213
N          -7.25734041107239    0.09201231805200    1.36478632376293
C          -8.35978089539481   -0.58245747946003    1.75743436403403
N          -9.54130789477026    0.02791650534756    1.72626894970019
C          -8.51520190904090   -1.91919287727966    2.28663340237483
C          -7.67124121934146   -2.99013317107122    2.56783547079592
C          -8.23367495101783   -4.13203060006697    3.09575635420335
C          -9.60734178548478   -4.22913360646507    3.34974420181049
C         -10.46801036080090   -3.18613803740159    3.08898822153717
C          -9.89959885602770   -2.03463618550079    2.55741589129701
N         -10.40955085772716   -0.83640116346913    2.18741090135486
F         -11.72695246253758   -0.48260575088211    2.26530524743383
H          -1.11952834244506    2.22059615810937   -0.53151720927402
H           1.30201435621293    2.26987496989811   -0.64111641369079
H           1.03727291730621   -2.18666225230500    0.19523909743023
H          -1.36741663584756   -1.81751574370167    0.24264641059545
H          -5.45827355078256    2.11486035622058    0.94870469502561
H          -2.95647277342601    2.55055157260749    0.45808817577915
H          -6.61485384887424   -2.91379497748338    2.36788927740874
H          -7.60421823685165   -4.97998312782197    3.32107540396959
H          -9.99891461483690   -5.14580220870349    3.76460335367578
H         -11.52622520021739   -3.24961676572510    3.28741025830192
