38
         -73.810386523233          0.000478080765
C           0.87697450376332   -0.35000116705439    0.17325105819803
C           0.56497593078292    1.02330932777558    0.19652533780474
C          -0.79679860881553    1.09957261305672    0.18302344493349
O          -1.34545519289435   -0.12319930848716    0.15370209044147
C          -0.32807349832925   -1.01805826302615    0.14730443786483
C          -0.61983568766859   -2.41450243959843    0.11895743336158
S           0.64485310003230   -3.59248908550097    0.11145602435349
C          -0.52771654749195   -4.89267169171687    0.07925839714196
C          -1.82444545538852   -4.38961102174625    0.07441191881913
C          -1.87334539113981   -3.00467437145490    0.09681198941216
N          -0.03813602242269   -6.13539650939527    0.06878296082080
N          -0.89234992915005   -7.10328812861189    0.04603695208315
C          -0.38030725888963   -8.35336770837031    0.04101370171668
N           0.90103611915491   -8.70130044722755    0.05402220526283
C          -1.20214066281284   -9.53138915708913    0.02229848465749
C          -2.54328596152101   -9.90018885927755    0.00928011781304
N          -2.88466732007860  -11.16848706548420   -0.00384910412477
C          -1.91204110356288  -12.10175920998457   -0.00499853765259
N          -2.32039681538520  -13.38311647588014   -0.04880127680139
H          -1.63553552005931  -14.11025644790692    0.04153529243695
H          -3.30045443760885  -13.57974550733142    0.02999046174837
N          -0.59615953067743  -11.88506831191929    0.01517180587971
C          -0.27729411874172  -10.60210893578868    0.02570171381767
N           0.96928382073589  -10.04007374032433    0.04538129660998
C           2.19434233070640  -10.66875299750362    0.05573302396835
C           3.45089610656105  -10.12435623842899    0.07097413794255
C           4.33250186925486  -11.22970195868805    0.07652032238379
C           3.54940523196024  -12.34290770798643    0.06431376804890
O           2.24385258820921  -12.00914618913903    0.05182614247516
H           1.84741532174212   -0.80185080507861    0.17515917174022
H           1.25465658720540    1.84164517885497    0.22006260069060
H          -1.46684281172825    1.93642691600925    0.19206821192180
H          -2.67786384822607   -5.04291444548762    0.05564037386187
H          -2.77845793620415   -2.42383815605524    0.09779536108879
H          -3.34789110409454   -9.17778485870302    0.01131419016015
H           3.68621740348621   -9.08167992976280    0.07702047167238
H           5.40222087539101  -11.19524370077308    0.08796471816880
H           3.78341297390556  -13.38828319491373    0.06301929927774
