29
         -56.358363778984          0.000866702236
H           1.07562635271714   -0.48438660335858   -0.88581329400967
C           2.13688818821190   -0.38163837285676   -0.76964855028865
S           2.83609166439283    1.17655606797174   -0.76376701844586
C           4.42750908962087    0.48383994812991   -0.55073623100595
C           4.36284717767224   -0.89905491727189   -0.48951620826053
C           3.05963961829361   -1.38114091833767   -0.61420174631047
N           5.45589261290483    1.34340854993365   -0.48034885084263
N           6.63343832666803    0.83713145231391   -0.34298249345295
C           7.62757768084261    1.75028231739210   -0.26790341151845
N           8.88750487001729    1.34657914202646   -0.18627412869899
C           7.58039893715976    3.19218932349921   -0.24974837062856
C           6.66232033289500    4.23548022046579   -0.29527600469824
N           7.08608155014454    5.48441365527969   -0.25071911416907
C           8.39175691676745    5.71628436407912   -0.15980970024915
N           9.36812087751821    4.83171506208079   -0.10439056273290
C           8.93963442792687    3.57722043486988   -0.15133327280772
N           9.67360314108862    2.42762616654892   -0.11875821911668
C          11.04119046004039    2.29476148237897   -0.03491612664601
C          12.06366148679070    3.21180363089803    0.03497340427210
N          13.24426777531998    2.55223360889328    0.10074270395172
C          12.96178590197046    1.27945706428489    0.07218103946105
N          11.62715536265203    1.06019742915098   -0.01042732707428
H          11.11687622822079    0.19211644554738   -0.05069564464638
H           5.24392271778240   -1.49975939649123   -0.35879248124319
H           2.79949560253487   -2.42395208306806   -0.59239023525326
H           5.59601110641182    4.07253584827849   -0.36770775360610
H           8.68900141884739    6.75562824591120   -0.12691596482661
H          12.00189512387574    4.27951975892114    0.04066718952809
H          13.68622505071174    0.49166207252763    0.10906837331700
