31
         -64.032902516393          0.000703895698
F           0.81059489494007   -0.13053186670370   -0.08902661250109
C           2.13416981061294   -0.00640485892191   -0.05061547542505
S           2.85341742431586    1.55693639691165   -0.04311608840537
C           4.43947020885712    0.80826542679365    0.01079297315396
C           4.34504914484921   -0.57250701000332    0.02038672559980
C           3.02862419245304   -1.03896730787120   -0.01502750404053
N           5.48959220701824    1.64351109068994    0.02826004112759
N           6.65886133891869    1.10361642505305    0.07026724514549
C           7.71315841799895    1.94580115812198    0.08338129690205
N           7.68353806453127    3.27626376366761    0.07569740675052
C           9.07536370292859    1.49552844797031    0.10813671041500
C           9.81356310620081    0.31445152411793    0.12194062232841
N          11.12440882706792    0.35240074995382    0.13822809202785
C          11.74367006268521    1.55143916401255    0.14155591522330
N          13.08581548038679    1.51987925945315    0.16717895186402
H          13.60001459899479    2.38065447104825    0.13697284495200
H          13.55132461320388    0.63192880118872    0.14280174396800
N          11.15948429391995    2.75148372441602    0.12856592505859
C           9.83808774105590    2.68627611832249    0.11258449357068
N           8.94601292504355    3.71938836374941    0.09382538564156
C           9.21135469114593    5.06840734706911    0.08982146106350
C          10.38220595097406    5.78939094210106    0.11224012107388
N          10.08888129600008    7.11130468817503    0.09361265281913
C           8.78788984116594    7.20208631471553    0.06017244797646
N           8.19657429817831    5.98314733960053    0.05649391475335
H           7.21888080896406    5.73842290560139    0.03567595141560
H           5.21977703319372   -1.19570418618915    0.05129284700063
H           2.73770496014320   -2.07329109230071   -0.01509939161306
H           9.35205941187538   -0.66332392174584    0.11874963526320
H          11.38669231774877    5.42398454443828    0.14059073613600
H           8.24007833462780    8.12199127656444    0.03816893075451
