34
         -58.965207826299          0.000714599563
C           0.69891036430750   -0.36419895271896    0.44239339967676
C           0.43985754279857    0.98003364562046    0.39471158005703
C          -0.88977040648207    1.06960506707747   -0.05874412094713
N          -1.40069605834824   -0.12168494047084   -0.27117585229821
N          -0.43377595354974   -0.99482542459318    0.03422968954412
C          -0.64870674928135   -2.34715545652302   -0.08067283112750
S           0.57252613481432   -3.49561532829151    0.34597421647661
C          -0.50034547382688   -4.81440364875193   -0.08316657882985
C          -1.72149726585298   -4.33644947560545   -0.52535050899632
C          -1.80574087285033   -2.94646135383112   -0.52367260611642
N          -0.01137266318607   -6.05451779910176    0.07221961162488
N          -0.79687568652097   -7.02933251608654   -0.24045975771045
C          -0.27685105693421   -8.26365502723671   -0.07256318700683
N          -1.02379721235097   -9.32441367726826   -0.36790298738873
C           1.01852922730400   -8.69909907797206    0.39325699408444
C           2.18562259993613   -8.08083378897758    0.83137071554927
C           3.23897164979957   -8.88908473418067    1.20037288217370
C           3.14984928220518  -10.28480220660285    1.14244887137836
C           2.00571974697348  -10.91992131975835    0.71236005545392
C           0.94008866293751  -10.10810175935342    0.33704672225276
N          -0.30877594612628  -10.40994225108974   -0.12739909549264
C          -0.86005161685056  -11.71238739069812   -0.35270559300473
H           1.57214107507161   -0.91603811688610    0.72459073770808
H           1.09933471630946    1.78471463520134    0.64503645828027
H          -1.47849112108159    1.94790242447201   -0.23282543372267
H          -2.50363450726505   -5.00647087396905   -0.83216837619531
H          -2.66153249935470   -2.37196713216839   -0.82662024451927
H           2.24831493881421   -7.00561192506515    0.87491266718497
H           4.15979999355915   -8.44160969180976    1.54428025169457
H           4.00217423686317  -10.87595503061760    1.44346544557668
H           1.93864607155892  -11.99623266208135    0.66851845711052
H          -0.25182442504633  -12.26516665775254   -1.07133586401778
H          -1.86436452685921  -11.58280240312105   -0.74995705936774
H          -0.90633220148719  -12.27587514978683    0.58153134091901
