40
         -76.061302743556          0.000540138109
C          -0.81075053047966   -1.05358981832144   -0.09996309285929
C           0.39492727143327   -1.29463415404468   -0.60036637081463
S           1.50991762705486   -0.06335596449131   -1.18963638418458
C           0.68395796057514    1.33347625086680   -0.50585564095011
C          -0.55090256693974    1.32516859210159   -0.01636525061410
N          -1.38630528764422    0.20861004695736    0.05180765953109
C          -2.70567989027311    0.34045236705572    0.37798150796830
S          -3.68089883984142   -1.04665493144862    0.76977776120556
C          -5.09222584301803   -0.02582855556912    1.02087414324120
C          -4.76823310255749    1.30584216092029    0.79958112684577
C          -3.44623165390508    1.51288191666738    0.43822122865812
N          -6.21712237007579   -0.64987781133114    1.35101429025108
N          -7.26698267600792    0.08568928266457    1.55087167595909
C          -8.40501755724478   -0.57432098290558    1.84855148798738
N          -8.58778092498126   -1.88950475328272    1.89775781095054
C          -9.64183956274779    0.09553691312041    2.14058650802367
C         -10.15919201402847    1.38083021659904    2.25437973128768
N         -11.42559471601983    1.56486643384301    2.55196494937448
C         -12.20987239460394    0.48536609664708    2.74564314403147
N         -13.49483160653615    0.73998136863045    3.05089014383337
H         -14.12756292719859   -0.02434326547813    3.19289142197271
H         -13.80244036964960    1.69261733793950    3.10092658193030
N         -11.84442265409868   -0.79511420393689    2.66894716332160
C         -10.56454747842655   -0.95355076953135    2.36686964015454
N          -9.87776655608867   -2.11802947710365    2.20733123738056
C         -10.34117510212840   -3.40789265430934    2.31864654523555
C         -11.57248693616636   -3.94015322679553    2.61564820322964
N         -11.48748671231323   -5.29334019991455    2.59623475812357
C         -10.25137673653058   -5.58233088492359    2.29822669766855
N          -9.50209617533139   -4.46741025954636    2.11719277293426
H          -8.52680723938979   -4.36836561610720    1.88283704279533
H          -1.42814493227686   -1.87043000503240    0.24297471335358
H           0.78433248043030   -2.29425398715311   -0.67056449099827
H           1.28503897442170    2.22490514402261   -0.49610233252230
H          -0.96149330101902    2.22719238483458    0.40866509472301
H          -5.50762303660366    2.07965388645643    0.89902228118885
H          -3.05231203504472    2.48457582616248    0.20213365142251
H          -9.55885435752514    2.26789753403526    2.10541525202762
H         -12.48379518963159   -3.42592514024750    2.83522403226236
H          -9.86069103758749   -6.57508709805060    2.20452330406980
