36
         -69.652830390043          0.000778223933
C           0.34906757278486   -0.55435165516450   -1.71086904875446
C           0.02570436310247    0.76327613441113   -1.88709086135446
C          -1.37438865201048    0.81118373405425   -1.72865981916962
N          -1.86442961692993   -0.37898587668675   -1.47707793321942
N          -0.81627373647890   -1.21334130827387   -1.46577837817311
C          -0.99117655283006   -2.55185570545305   -1.22722804044084
S           0.34347744214132   -3.64651775114540   -1.18695910317568
C          -0.74641559439011   -4.98069505115802   -0.85464107334859
C          -2.06220447954303   -4.54327222373751   -0.78853940780775
C          -2.20008986088806   -3.17719021001737   -0.99721360764137
N          -0.18291303001885   -6.18252303746803   -0.70811051768150
N          -0.96893068643673   -7.18306980514676   -0.47963790305387
C          -0.33197887542592   -8.36323920683629   -0.32312308714310
N          -1.03331643422246   -9.46664987840079   -0.10161731887270
C           1.07574554247641   -8.68208380901211   -0.34193791127862
C           2.31172680187341   -8.06818634060531   -0.50787544606247
N           3.41660974895564   -8.78739618410271   -0.44130177424669
C           3.31893034903365  -10.09332661422718   -0.21452879862951
N           2.22176700398872  -10.80379346383887   -0.04052020150902
C           1.11320754425120  -10.07831386593501   -0.10862179685822
N          -0.18014729055081  -10.49046585025778    0.02584147012532
C          -0.64376851906967  -11.76467413802206    0.26167355035417
C          -0.00597714953506  -12.97187957723864    0.42796645504861
N          -0.93353170396116  -13.93573303564014    0.63683820246826
C          -2.09681420675126  -13.34728266133898    0.60096715215387
N          -1.98253718641345  -12.01619376397353    0.37443267278608
H          -2.69696764983107  -11.30989060412937    0.29414407764560
H           1.28650223810343   -1.07130157361868   -1.73846676584998
H           0.68520374549071    1.57857434965305   -2.09801416899351
H          -2.02372518171523    1.66132956992469   -1.78971190201418
H          -2.86720620073495   -5.22816079775491   -0.59195042496858
H          -3.12705003665703   -2.63365522745450   -0.98964208112884
H           2.41710804698437   -7.00842821267161   -0.69364423730658
H           4.25158876192369  -10.63897743717723   -0.16723812934126
H           1.04296374186777  -13.17983651591841    0.40694326436173
H          -3.03681025858612  -13.84303240564322    0.73305289308143
