38
         -72.950478275261          0.000426655244
C          -0.59878902457835    1.33214704561626   -0.23369727020616
C           0.72694107858590    1.40151081848684   -0.28488436807594
S           1.83298846158431    0.18196078023936    0.33684710887649
C           0.64358843383038   -1.08928870709833    0.60259849692715
C          -0.67326202562095   -0.92402818769294    0.56862431930219
N          -1.33537913024719    0.27686974818391    0.30823907812256
C          -2.68639293474835    0.37576054891207    0.46944952586123
S          -3.64678907762702   -1.01564614516715    0.88241091629549
C          -5.11470149075904   -0.04664710037238    0.87395766530378
C          -4.81969712872121    1.27563074493477    0.56871300528815
C          -3.47336150035253    1.51499123812452    0.35039361873715
N          -6.24129661896860   -0.68246353102072    1.17161893774732
N          -7.34612974124164   -0.00226510755730    1.12990299232986
C          -8.43661491610158   -0.70666650359462    1.50118208546527
N          -9.64109673804455   -0.16409976815747    1.42249283379245
C          -8.53953335796414   -2.04310522561005    2.04296700106300
C          -7.73658211652564   -3.12052344592038    2.38979931019623
N          -8.28178187448688   -4.21622502090747    2.88979926174229
C          -9.59975496133383   -4.25348410110858    3.05231705617309
N         -10.47769378187519   -3.31053547146291    2.77280919712812
C          -9.92781839381676   -2.21432236112481    2.26815184472659
N         -10.53693499003197   -1.05716916026240    1.87505952639254
C         -11.87965877538646   -0.74595331783895    1.89347777935535
C         -12.51454109193211    0.40659418542905    1.51553820741777
C         -13.88836036157204    0.16417269992422    1.74800200687558
C         -13.97460193765648   -1.10108098220404    2.24244598573367
O         -12.75378840842425   -1.66225982287249    2.33367604379199
H          -1.18876647504558    2.12206402318817   -0.67010167465154
H           1.22484423539840    2.23578383684062   -0.74605628344797
H           1.08221746842227   -2.05224473426138    0.79296885076027
H          -1.32673079381374   -1.76664352308049    0.73895517528628
H          -5.59583088406098    2.01802569154159    0.52674195968396
H          -3.08502952653923    2.49386547610285    0.13594308171425
H          -6.66219119550868   -3.11198056897313    2.26819955559278
H         -10.00215742543844   -5.16828329370041    3.46653892383256
H         -12.04779262550798    1.28749793833906    1.12997594639457
H         -14.69685274095482    0.84251647024498    1.56970355538320
H         -14.80745763293645   -1.69723516611892    2.55610874308768
