31
         -60.032928529537          0.000804900088
F           4.82733775065999   -4.41945873571398   -1.14837761456910
C           5.16171051822305   -3.15734065729884   -0.89151028873864
S           6.74002634380644   -2.58759893420913   -1.27797580135160
C           6.29947352682794   -1.00304259156233   -0.66454230371180
C           4.99786582423220   -0.98809463361861   -0.19674824602060
C           4.34773368935821   -2.21931154254923   -0.32376082536576
N           7.26722477215619   -0.07324502325899   -0.67448836948035
N           6.93211186666288    1.12752739516981   -0.35448955828384
C           7.92698221272821    2.03047590409807   -0.24751654539940
N           9.23185246269927    1.77686874914195   -0.19526976226186
C           7.70414964142937    3.44175888161081   -0.09064743748414
C           6.58000807584662    4.26024676406593   -0.06957221801904
C           6.77460038195599    5.61251455943309    0.10069559947758
C           8.05824009397485    6.15069945784015    0.24367886633357
C           9.18635864959726    5.35982122839931    0.22117800689424
C           8.99677469900063    3.99308115302428    0.05065423393494
N           9.87088920844551    2.93334535039314   -0.01402325761023
C          11.24393315885034    2.89915660542214    0.09520705562797
C          12.23533167033327    3.83761323902508    0.27395634891941
N          13.43933684691652    3.21827616440959    0.30185575209876
C          13.20533222442673    1.94491192101274    0.14622163982046
N          11.88318407676899    1.69156975712162    0.01463653013396
H          11.39393949543288    0.82007713213149   -0.12167884957181
H           4.55992186504839   -0.10287848373803    0.22667407997316
H           3.33644868817307   -2.41881189715158   -0.02078808919347
H           5.59637536438758    3.83369122613244   -0.18198191377846
H           5.92462927118891    6.27763077542599    0.12540798474570
H           8.16590451679162    7.21687233685634    0.37464127577021
H          10.16851798198133    5.78712751838062    0.32979656830576
H          12.16979677102232    4.89934991524434    0.38223389519601
H          13.95818835107374    1.18384646476197    0.12395324360869
