30
         -57.135863194620          0.000840315405
C           1.34597741610847   -0.60387358610706   -0.81471324180610
O           2.15027044762432   -0.04126594358336    0.20059139352467
C           2.75917045808916   -0.89499443233546    1.04073595214077
S           3.75878513400423   -0.20287919919943    2.26857580766085
C           4.15153576609836   -1.80954453731676    2.87372939543354
C           3.51135803466464   -2.78194387132636    2.12726869994203
C           2.72547128387185   -2.26879481137714    1.09337430237929
N           4.97798382551380   -1.86643221257084    3.92359031281729
N           5.29444709334082   -3.03941587527528    4.36098016729548
C           6.13218522162582   -3.08173387464373    5.41658576012898
N           6.66516637892888   -2.04756639147814    6.07465345414171
C           6.60778910100076   -4.30383827812278    5.99406307134394
C           6.50338323060193   -5.68314633490021    5.83781557630572
N           7.17435613476484   -6.49550364999403    6.62109144458174
C           7.97311767267962   -5.97357809131522    7.57594772965249
N           8.67820456861860   -6.86666529646759    8.30182138952152
H           9.16637536262215   -6.54154226268405    9.11594756767027
H           8.44138582270207   -7.83686650003394    8.20857275833477
N           8.15786050691441   -4.68374944066411    7.84608334343263
C           7.45909790936900   -3.88305021753648    7.04731843921421
N           7.43587548794234   -2.53179822545086    7.03575348502586
N           8.05101037719853   -1.68623407283176    7.93797011101446
H           0.95635275271711    0.23832354218683   -1.38270916041626
H           0.51649124738856   -1.17628028924017   -0.38948909178622
H           1.93512801456845   -1.25014147713409   -1.47186847516784
H           3.62748805582157   -3.82749170235310    2.34774420826628
H           2.15997184855848   -2.88418822663045    0.41727447194117
H           5.87895835010465   -6.13980868943636    5.08207529157490
H           8.99328304029534   -2.01236333722300    8.13599654755406
H           8.04620945626202   -0.74662271494991    7.55019928827695
