25
         -46.218426401713          0.000781222908
H           1.01202100194079   -0.37680238542316   -0.76841756941492
C           2.07270565213852   -0.29181963877132   -0.63559692002357
S           2.79952860568914    1.25440408897263   -0.63345719429244
C           4.37464166477052    0.53671339920199   -0.39022197351174
C           4.28570403333892   -0.84327523523211   -0.31846823978397
C           2.97557797025775   -1.30459369998458   -0.45752728468952
N           5.41736550005207    1.38128890473910   -0.30562136621164
N           6.58141576515483    0.85577021854592   -0.15038948749229
C           7.59448702781635    1.75070805014992   -0.06277014727713
N           8.84198837879531    1.32209773953780    0.06973940851957
C           7.57992318434999    3.19262651713971   -0.08244528590414
C           6.70041971037743    4.26370668025397   -0.18510979471213
N           7.16449616759863    5.49976409042646   -0.15723173033715
C           8.47359890775594    5.69194933321748   -0.02762554756902
N           9.41886530361559    4.78007978067105    0.08176380068081
C           8.94984056473313    3.53618139190805    0.05073770260270
N           9.64721434278740    2.37843559183377    0.13663400688707
C          11.06694998748886    2.23655415982476    0.27296908921200
H           5.15454783874158   -1.45739956646722   -0.16891076652492
H           2.69794553183023   -2.34334898453932   -0.43090664407438
H           5.63199179360444    4.13625485552078   -0.29130122580606
H           8.80233179354885    6.72256650542006   -0.01002024746453
H          11.49347434310828    3.23379927749011    0.35864553354662
H          11.47819939827290    1.72714399351009   -0.59987975225429
H          11.29735553223230    1.64855493205410    1.16192163589498
