38
         -68.645344879528          0.000832146319
C           0.25188188931617   -0.62467947020721   -2.04659911805873
C           0.04066613924804    0.74894485689499   -2.25046900073279
C          -1.23046079054761    1.13531296276199   -1.95752251747297
S          -2.20399186424757   -0.17416740126333   -1.42601811332225
C          -0.86839566240872   -1.28161369447497   -1.59785900265232
C          -1.01968323535740   -2.66189205141650   -1.29082267659569
S           0.31291825259001   -3.76531082305706   -1.42043518588923
C          -0.70095528210809   -5.09879472865036   -0.91791908508190
C          -1.99694250010503   -4.66871063479474   -0.66389064597407
C          -2.16930094140807   -3.30875254662725   -0.86992005317869
N          -0.11477381414293   -6.29675168408196   -0.80510236667144
N          -0.88572484221936   -7.29913165924816   -0.53694991845992
C          -0.25779994739830   -8.47820208669599   -0.35211164279324
N          -0.98944985976492   -9.57054704977331   -0.17088555261535
C           1.14465883899010   -8.81605718377050   -0.27648661512497
C           2.33523334597517   -8.10458809875489   -0.37915422832448
C           3.51385863549841   -8.80543665231316   -0.24520479085108
C           3.51903299696915  -10.18420829166020   -0.01270918714192
C           2.35107524288914  -10.90817173133855    0.09651400278523
C           1.15842242459782  -10.20724261080488   -0.03640534428780
N          -0.15906972148304  -10.60083885278620    0.01401688817245
C          -0.71283272266596  -11.84556743473953    0.21830021266054
C          -0.22017290887335  -13.10656899017476    0.46505727833679
N          -1.25191969268043  -13.97628053804692    0.58743485562390
C          -2.34292882163086  -13.28227459938983    0.42342912928907
N          -2.07487129975632  -11.97565190649643    0.19513706857901
H          -2.69934957206811  -11.20074372329926    0.03401943964104
H           1.18609652333692   -1.12738836413402   -2.22060472734309
H           0.80002217561323    1.42454578128268   -2.60038088752434
H          -1.66026448138252    2.11509932532340   -2.02121578144122
H          -2.75835556421169   -5.35229832515433   -0.33574413923339
H          -3.09892365646733   -2.78588203318987   -0.72723425645864
H           2.31766531726261   -7.04224741117891   -0.56072376833811
H           4.45709393461234   -8.28566982654849   -0.32126502938115
H           4.46523986453390  -10.69516654419514    0.08475611665613
H           2.36857905122931  -11.96953675801488    0.27698361677821
H           0.78877029410626  -13.44592183512273    0.56429227055311
H          -3.33480774583896  -13.68372738486164    0.46224275587471
