25
         -49.898276615588          0.000294765042
C           0.91018361870599   -0.48913230123325   -0.02286525048242
C           0.85526476710229    0.91383086041717   -0.03590624477195
C          -0.41974918546107    1.38987261611751   -0.02012935095648
S          -1.58641213625278    0.13273810304222    0.01171811402898
C          -0.33194699124243   -1.07715274767461    0.00329439988023
C          -0.64800033391665   -2.46408353075751    0.02049811930740
S           0.59984683902576   -3.66576387812854    0.00035075154551
C          -0.59014576297896   -4.94660048625044    0.03447770297944
C          -1.87846490646585   -4.42867591075022    0.06005024054382
C          -1.90679009927794   -3.04268820452090    0.05169430454698
N          -0.11704401546373   -6.19977694554129    0.02352284152552
N          -0.97686699353564   -7.15652232642468    0.05587153684089
C          -0.42823688520821   -8.40125079752419    0.03232804052648
C           0.93506111702101   -8.81138398974352   -0.02938590965975
C           0.89164820519447  -10.18060648167031   -0.02986307113284
N          -1.23117709025331   -9.47076345244980    0.06637691721775
N          -0.41954356206579  -10.47998129803888    0.02846747574923
F          -0.91550601228943  -11.74630282317887    0.04804947946876
H           1.82048296796443   -1.06126316927484   -0.03181162507328
H           1.72487935332132    1.54558279155360   -0.05639735229516
H          -0.74874011317731    2.40990810123944   -0.02542950509279
H          -2.73938442230636   -5.07183116980789    0.08236134728886
H          -2.80673296632279   -2.45269564024159    0.06747790746501
H           1.78934148912843   -8.16924633186156   -0.06678453894063
H           1.64722311875467  -10.93755098729719   -0.06529633050953
