40
         -76.401794079946          0.000565458445
C          -0.79708100232336   -1.02410508206858   -0.14625625800277
C           0.41138528880805   -1.25226441310384   -0.64594045479502
S           1.51768811886931   -0.00613013344507   -1.22121564535966
C           0.69019484924461    1.37447696544502   -0.50692336222980
C          -0.54638850025684    1.35305880435854   -0.02201730747000
N          -1.37950098097440    0.23355929102111    0.01655401171128
C          -2.70062075642200    0.35556920833636    0.34022084871958
S          -3.67306547489886   -1.04026567823403    0.70807444776295
C          -5.08626137271381   -0.02723491046810    0.97250515421338
C          -4.76641837290144    1.30884913473644    0.77091267985553
C          -3.44439006549914    1.52525707552577    0.41500764001130
N          -6.20765325826646   -0.65957769367126    1.29809155224841
N          -7.26056960943458    0.06606411794545    1.50854707312243
C          -8.39217094073444   -0.60486297480062    1.81305151666449
N          -8.56345667493541   -1.91912383935504    1.87091456922672
C          -9.63112834354921    0.05989618993204    2.11140614887495
C         -10.15317860408956    1.34221692893362    2.22927037123555
N         -11.41791425964466    1.52198837905727    2.53999315275807
C         -12.19346192329956    0.43841811441225    2.74060564989078
N         -13.48523956815535    0.68177674463524    3.03120080438253
H         -14.08482758511396   -0.08946320888042    3.25743214113834
H         -13.77993573949012    1.63051628626213    3.16717083411812
N         -11.81984486634598   -0.83935852802683    2.66669346801660
C         -10.54449906204457   -0.99447263797986    2.35128937659882
N          -9.84773761110812   -2.15808753661151    2.19234968822423
C         -10.29331726320840   -3.45486541244944    2.31506149958427
C          -9.60526328659683   -4.62749577137117    2.15314148653819
C         -10.55151925762466   -5.64897726678089    2.40075861486936
C         -11.72400258917252   -5.02178886838038    2.68953248008552
O         -11.57478591318155   -3.68243468467203    2.63972755258226
H          -1.41028027570711   -1.84758991357359    0.18831408194093
H           0.80890337218753   -2.24805789452906   -0.72360055437203
H           1.29146803029991    2.26546797975375   -0.47154292158573
H          -0.95940413339992    2.24372516404150    0.42517115503193
H          -5.50795660396431    2.07915105625588    0.88115197105151
H          -3.05230276330848    2.50133952355412    0.19317372194973
H          -9.55751174370632    2.23175937982976    2.07589514861663
H          -8.57245858253101   -4.72142982835808    1.89441189998673
H         -10.37736639089623   -6.70466137456535    2.36699804304588
H         -12.69778628391019   -5.39276269271128    2.93784771975779
