30
         -52.840537880937          0.000935971002
C           0.92520707262921   -0.00079849852543   -0.14301129340798
C           2.40576837098307    0.13262724119415   -0.11361909284508
S           3.16211025174425    1.68126079039027   -0.10060578635168
C           4.75031271295548    0.94839726304692   -0.06571736548703
C           4.65004787235988   -0.43369366017655   -0.06548251663034
C           3.33092110116905   -0.88311095616372   -0.09246658630354
N           5.79822691297037    1.78454303687983   -0.04512497979996
N           6.96746591013847    1.24700282671971   -0.01783854947389
C           8.02493542462889    2.09112130833394    0.00004357807458
N           8.00443306139332    3.42075384241134   -0.01127127540026
C           9.38431270623478    1.63231881687935    0.03226712166048
C          10.12542603879313    0.45589403380748    0.05021383842920
N          11.43836316245850    0.49700627370951    0.07553130398428
C          12.05253598549021    1.69755445938443    0.08478544577942
N          13.39946558627008    1.66562397838609    0.15470810021376
H          13.90891704670744    2.52074133073870    0.02592636029089
H          13.85703043590347    0.78029734541829    0.03532789412771
N          11.47014864638093    2.89510065832172    0.05996473410374
C          10.14374008965367    2.82859236036029    0.03801700366850
N           9.26434046663623    3.85592575597993    0.01081670325740
C           9.57592996699831    5.25480245403475    0.00750547264236
H           0.45438875273787    0.97783377146241   -0.16965353886376
H           0.57443839057306   -0.53529409602631    0.73995231338296
H           0.61198201137243   -0.56622391907012   -1.02068120244365
H           5.52223118660904   -1.06164143841281   -0.04629640013212
H           3.05184188026919   -1.92260874738315   -0.09649094396098
H           9.66868581606061   -0.52446888990890    0.04079198877386
H          10.65946120296523    5.35170062328816    0.02462006172676
H           9.14081837480171    5.73660840520372    0.88439957163469
H           9.16890356211212    5.72593362971595   -0.88843196065024
