32
         -64.310131429601          0.000608669807
C           0.88368426406381   -0.42573480434628   -0.07247232519464
C           0.64369849778733    0.92078353584167   -0.07674350924344
C          -0.76186899366237    1.03301044300752   -0.03004252968875
N          -1.33139335021409   -0.14746210250791    0.00019383628658
N          -0.33112440178700   -1.03924602879599   -0.02557179778040
C          -0.59519845519678   -2.38346352170424   -0.00439116559110
S           0.66550308911226   -3.56088608417959   -0.03458346230426
C          -0.52357546124219   -4.85014205766208    0.01475345494327
C          -1.81460746173299   -4.33488943916626    0.05230578428749
C          -1.85589356652519   -2.94880095362617    0.04214683898061
N          -0.04457442095260   -6.09391665430610    0.01423354132195
N          -0.89785869435317   -7.05832849126559    0.04439533440435
C          -0.38306084753469   -8.31280986561359    0.04390692143012
N           0.89029739525996   -8.65585979561619   -0.00129299059115
C          -1.21539465793684   -9.48651549771998    0.09200961824487
C          -2.55888405735152   -9.84645801684254    0.15255007950524
N          -2.90611677123290  -11.11172887240273    0.18495128810971
C          -1.94358493166617  -12.05412074387250    0.15848812281512
N          -2.35633695733927  -13.32940102664753    0.17918693280911
H          -1.67315564280345  -14.06384039393683    0.20508729578052
H          -3.33670864003598  -13.52287859166616    0.26614916751174
N          -0.62372828436266  -11.84178013929724    0.10423392844159
C          -0.30459755873724  -10.56419151474721    0.07179793434782
N           0.95402095513426  -10.00898492240917    0.01470626298939
C           2.10361157344059  -10.66892792551181   -0.02104231567068
N           3.08786719606243  -11.25206594569943   -0.04953965350907
H           1.79303418731758   -0.99064336529952   -0.09822615187873
H           1.35909409755657    1.71561212199258   -0.10841359732302
H          -1.35971249396797    1.92210865629638   -0.01780041627248
H          -2.67227610177722   -4.98177275968913    0.08654488731489
H          -2.74591011385317   -2.34776592471128    0.06635953060143
H          -3.35760939146936   -9.11833931789509    0.17611915492194
