24
         -50.715643746481          0.000775500507
F           0.92396212587984   -0.18339274266376   -0.05580260492723
C           2.24826944275614   -0.05723757210642   -0.05712632472486
S           2.96699811619891    1.50548242387324   -0.07756800713708
C           4.55210487557851    0.75668929212971   -0.06464135365933
C           4.45951831051696   -0.62376130539047   -0.04726339798597
C           3.14271598026764   -1.09071623931118   -0.04306556572983
N           5.60221999978206    1.59465010086053   -0.06897092405769
N           6.77070849606941    1.06319388375025   -0.05065168245143
C           7.82486040768195    1.91496053140188   -0.04126382565475
N           7.79065583388062    3.24319884146426   -0.02425624604022
C           9.18805954119164    1.46513708760766   -0.03292292953600
C           9.93269090418691    0.28882523445049   -0.03452251680620
N          11.24406488417054    0.33441269651978   -0.01484384002955
C          11.85595827348111    1.53660325950833    0.00461857181711
N          13.20046661456091    1.50981748854963   -0.00030119905890
H          13.70743480659888    2.37041910246223    0.09054932373735
H          13.66419826790316    0.62328540010555    0.07650993262112
N          11.26734375736454    2.73377726609870    0.01156254608444
C           9.94477128977759    2.66371713620145   -0.00901695285963
N           9.05037612787220    3.68056352892824   -0.00546211988119
H           9.24017736562890    4.67050757700549    0.01265917211305
H           5.33458369801408   -1.24726792227621   -0.03856804092151
H           2.85140186828428   -2.12483023444553   -0.02969003647066
H           9.47803901235321   -0.69216483472388   -0.04904197844101
