31
         -59.291910878931          0.000962732456
C          -0.82986496565306   -1.02651817382832   -0.12449025331292
C           0.37656662484305   -1.25971366549941   -0.62691048346391
S           1.49161573121705   -0.02139983302677   -1.19831438482610
C           0.66408500022995    1.36596048126625   -0.50046747118104
C          -0.57103245521250    1.35164178090086   -0.01169393896956
N          -1.40653266865246    0.23388989469981    0.04215574976090
C          -2.72501116717207    0.36086583477683    0.36702583414221
S          -3.70444494013346   -1.03023838445626    0.73000294534288
C          -5.11119843140555   -0.00942693679598    1.00212262127915
C          -4.78325783107621    1.32664930742497    0.80472060192942
C          -3.46228786975509    1.53656657249527    0.44846372735020
N          -6.23715022946689   -0.63131512975870    1.32922988691625
N          -7.28062236062884    0.10328236918029    1.54787278570568
C          -8.42249421018325   -0.55911392289912    1.84546614708106
N          -8.62504011873500   -1.87052883019589    1.85731610647765
C          -9.64679663013853    0.12062124166180    2.17613250285828
C         -10.14844268791288    1.40410043409376    2.33999234773204
N         -11.41730709787780    1.58136968913387    2.66387886966106
C         -12.18949265921843    0.51244462828305    2.82856887272133
N         -11.85426691294321   -0.75709853537003    2.71003743968623
C         -10.57816492653115   -0.93231758225440    2.38303924168975
N          -9.90727367599948   -2.08600763661686    2.17764918491960
H         -10.26186659657897   -3.02777877300875    2.23351713899891
H          -1.44685674807877   -1.84802487500833    0.20787857389257
H           0.76701637110686   -2.25791920166537   -0.70954609042114
H           1.26539162062249    2.25761564805646   -0.47855247014070
H          -0.98135689478089    2.24812583994470    0.42543524882021
H          -5.52146965630004    2.09943161343304    0.91947888332513
H          -3.06501124300656    2.51137529982447    0.23127889738845
H          -9.54437281994139    2.29208557918315    2.21316846601024
H         -13.22028955063776    0.70908526602587    3.09216301862706
