27
         -49.141982535972          0.000500033735
C           0.89497160240042   -0.48028194944437   -0.00251966528842
C           0.80394098698933    0.92187701267250   -0.01198227007043
C          -0.48183443783212    1.36561149106378   -0.00403042965167
S          -1.61632886421665    0.07685708745731    0.01599162832296
C          -0.33062156942839   -1.10039666311245    0.01288389968399
C          -0.61462280916320   -2.49477484178321    0.02146243655621
S           0.66142547087764   -3.67083059290171    0.00629093542777
C          -0.49936684643149   -4.97684194216124    0.02304313306676
C          -1.79736651892128   -4.48870314233957    0.03883268262014
C          -1.85763886353345   -3.10187219732442    0.03719526622895
N          -0.00345797881288   -6.22444409336087   -0.00212688144204
N          -0.85670885974454   -7.18814637711229    0.04218015597293
C          -0.31780668788135   -8.43078879266772   -0.01880782747237
C           1.02949266173722   -8.85453702854314   -0.19679805278556
C           0.96522484858997  -10.22094492741468   -0.20555654614728
N          -1.12113310021997   -9.49754630376115    0.08466461633228
N          -0.33891159703080  -10.54432302750840   -0.03070701713537
N          -0.85620233079949  -11.82494639117135   -0.02317804849215
H           1.81985058549042   -1.02853331941224   -0.00678715303912
H           1.65758469446827    1.57557394670898   -0.02474558624030
H          -0.83799606984227    2.37645675581073   -0.00906376696004
H          -2.64398899495223   -5.15075620838621    0.04777157838350
H          -2.77174038536042   -2.53365536998977    0.04724367025408
H           1.88408780238682   -8.22112356218752   -0.30596160843679
H           1.71409884505140  -10.97826115613775   -0.31519326679476
H          -1.86721781625059  -11.75100115753196   -0.10319938721712
H          -0.62279376757091  -12.31285724946108    0.84035750432401
