31
         -63.491857746547          0.000988199721
C           0.92302585481923   -0.46666830800103   -0.26624138484584
C           0.85953037792987    0.93569308639969   -0.27967246091198
C          -0.41200860573791    1.40572888159824   -0.15401899533974
S          -1.56469467106827    0.14345438321704   -0.01603132811205
C          -0.30922935675389   -1.06136469746551   -0.12922971883489
C          -0.61631854582538   -2.44857077317760   -0.07340657006468
S           0.62453755238652   -3.65180502701450   -0.18714557725992
C          -0.55729662388594   -4.93123146506429   -0.03117581542045
C          -1.84128147837770   -4.40839937314578    0.09899065498920
C          -1.87010566697838   -3.02501458183173    0.07524821985913
N          -0.08736125725144   -6.18000253325028   -0.04586226008933
N          -0.94657760053393   -7.13521402901078    0.06775999269831
C          -0.45555500821798   -8.39286305475205    0.06432965242553
N           0.81873304410504   -8.76540892591642   -0.04947716390631
C          -1.28474639046253   -9.55710025842939    0.19536543878777
C          -2.62408331431240   -9.91206732412582    0.34643116049043
N          -2.97377339047665  -11.17244835586784    0.43610575289543
C          -2.01796318665661  -12.12484806742474    0.38015670821302
N          -2.44329806430982  -13.39376406676662    0.47421453217977
H          -1.77160762266755  -14.13921134387002    0.45996942081435
H          -3.42167724191602  -13.57182620566719    0.60148085941470
N          -0.70595689066117  -11.92862553589752    0.23792924032783
C          -0.38018928094345  -10.65076717411477    0.14955257339814
N           0.83035390784853  -10.07779723052831    0.00283323621170
F           2.02659323631575  -10.73096903915853   -0.09204316828144
H           1.83172320179511   -1.03480677795746   -0.35223768145498
H           1.72048403171423    1.57198945534168   -0.37794712809503
H          -0.74561637825143    2.42416376009010   -0.13356884405158
H          -2.69811258200435   -5.04836644522585    0.20696016553020
H          -2.76445056962469   -2.43261977012008    0.16285760497479
H          -3.41756747999690   -9.17936920286276    0.39646288345800
