20
         -40.531278776687          0.000542051519
F           1.01574241694907   -0.21888967268584   -0.06894064803544
C           2.33441450115167   -0.03239416634336   -0.04300093971853
S           2.97982053688500    1.56434711397147   -0.07752792160233
C           4.59700528898781    0.89300531592263   -0.01620887154220
C           4.57140015147559   -0.48635509919725    0.02587121822944
C           3.27662511467462   -1.01756063275790    0.01015378927747
N           5.61576008398449    1.77698593742725   -0.02807670031652
N           6.80056008566049    1.28509896565687    0.03856594947088
C           7.80795414205603    2.19048495493878    0.00284317001848
C           7.79298122723289    3.60289418333056   -0.16917415826632
C           9.11124622971074    3.96918647726014   -0.14715894771906
N           9.07176026827173    1.76137232813315    0.13260722469812
N           9.82164226618543    2.83003045385622    0.03893661224978
N          11.19733216009473    2.73302464395768    0.06719558382371
H           5.47663273947285   -1.06368398434413    0.06464198724992
H           3.03691988043785   -2.06454955162293    0.03616194041137
H           6.92757520245511    4.21822846175428   -0.29475156094446
H           9.59731607322904    4.91837395811313   -0.24240822875690
H          11.43912880573014    1.74546099117685    0.08110924996929
H          11.58707282535483    3.19519932145236    0.88639125150334
