25
         -51.240591987305          0.000337163982
F           1.07069300859942   -0.51607228517364   -0.86424049813463
C           2.37227329583356   -0.32892356281085   -0.67943883234859
S           3.01973594303739    1.26374895155814   -0.68109448310972
C           4.61622371045008    0.59428083528720   -0.39895854301290
C           4.58068395120301   -0.78664230047750   -0.31810503370314
C           3.29825459703219   -1.31499046505035   -0.47846297006331
N           5.62357234077810    1.47708533496091   -0.30122825453934
N           6.80142819031252    1.00195107203298   -0.10361434855179
C           7.78033037787175    1.93382248538597    0.00388373496344
N           9.02599897881527    1.53014321267871    0.15689375608535
C           7.71402107836593    3.38320692117649   -0.00393147279015
C           6.70879234249557    4.33646830144611   -0.12477525836195
C           7.07984458403577    5.66452385643992   -0.08007610100474
C           8.41310069186768    6.05111020680789    0.08181253130577
C           9.42714708921104    5.12259230123312    0.20571829074317
C           9.04992953992662    3.78984280122642    0.15948353981977
N           9.79860336518191    2.62448864800875    0.24983653212384
C          11.11293789382145    2.57220113936438    0.40610365292647
N          12.25001974481399    2.57940346837554    0.54075001394501
H           5.47200302308611   -1.36216061110190   -0.14793565910988
H           3.05045442550840   -2.35992932463383   -0.45099641312500
H           5.68208596953784    4.03376576588225   -0.24970209766653
H           6.32414192568083    6.42976793036778   -0.17237895514010
H           8.65483125188177    7.10259503844275    0.11106139962592
H          10.45884268065043    5.41133027857134    0.33244546911255
