26
         -50.732905561714          0.000368322710
N           1.27450768215526   -0.52701154668594    0.04221342803630
C           2.40825108166365   -0.34582394515822    0.04969369646912
C           3.78908216665117   -0.14323268639853    0.05968653324720
S           4.46375713910223    1.45079521311702    0.09631016422890
C           6.07321741997748    0.78378947238465    0.09224909770054
C           6.05207365749085   -0.60363714474280    0.06181219815788
C           4.76443948714638   -1.12395079386327    0.04342279603753
N           7.08522121322031    1.67224850045643    0.10396238907350
N           8.27763021112781    1.19248900704387    0.13264382622989
C           9.26462879811395    2.12071898983002    0.12820917938091
C           9.19947253200952    3.54785985161882    0.09306284053426
C          10.49996978036182    3.95358042550887    0.10592638932053
N          10.53783910499078    1.72093597344248    0.15943919353593
N          11.26705151622783    2.82492134865937    0.14573183395787
C          12.64218983048158    2.74648293516063    0.17086403760826
C          13.64106037857135    3.69312709720511    0.16464320563596
N          14.84356815404798    3.07304025723990    0.19994547150334
C          14.59916990850227    1.79230412038353    0.22688125360707
N          13.27059503094817    1.53320638157204    0.21087355076408
H          12.78156173518255    0.65178295511071    0.22413982859611
H           6.95799327653947   -1.18170055595363    0.05285900221423
H           4.52811658801008   -2.17327136303550    0.01988325269133
H           8.30920017897815    4.13924281700745    0.06406820363657
H          10.94524978357028    4.92685771034067    0.09061642691580
H          13.56904715372303    4.76062934815950    0.13750452818055
H          15.34953619120590    1.02911563159634    0.25799767273636
