34
         -59.303163138963          0.000325086509
C           0.81913764784676   -0.29071305464851    0.18776621723618
C           0.49062655896566    1.08035451082813    0.19438677068186
C          -0.86557047408905    1.14303996953371    0.07894289079453
O          -1.39737307402146   -0.08749295890875   -0.00000692408390
C          -0.37170215124749   -0.97074008775736    0.06631164737683
C          -0.64656830820743   -2.37029060099880    0.00219981918341
S           0.63164563378826   -3.53606083569223    0.11848598406551
C          -0.50927478295584   -4.84997216098954   -0.06948856976550
C          -1.80175229276044   -4.36716466472467   -0.19765444679430
C          -1.87548567696656   -2.97919961362704   -0.15329228560729
N          -0.01698394460136   -6.09530393038996    0.01316012965831
N          -0.80662809666853   -7.06639783502527   -0.30638900820459
C          -0.31801524879139   -8.31047259444302   -0.12287956512653
C          -1.02420355132873   -9.44790145352933   -0.49877054294732
C           0.92015590909023   -8.78133875831630    0.45240053548178
C           2.03353549750785   -8.15252373410860    0.99946921037158
C           3.06258731978290   -8.94112164143056    1.47180461427448
C           3.00134354692777  -10.33457552195159    1.41306604999078
C           1.90818717893220  -10.98331313370415    0.87571550522435
C           0.87309726996074  -10.19213908206469    0.39780290155268
N          -0.31497752099883  -10.55291155967936   -0.19493771236225
N          -0.72228502493989  -11.87323893721217   -0.36977813013658
H           1.79220935725484   -0.73129273251714    0.25986485842238
H           1.16810066185887    1.90560984248900    0.27402675884953
H          -1.54497707736022    1.97152035920389    0.04338912994966
H          -2.64089408623829   -5.02991050062938   -0.30703649662410
H          -2.78707543557950   -2.41445258933329   -0.23641980450709
H          -1.99179302776277   -9.50582205509246   -0.95981538130153
H           2.07613899306241   -7.07633419215679    1.04422594264385
H           3.93729491148735   -8.47486565698939    1.90038884183357
H           3.82594270424711  -10.91593179500340    1.79814815573348
H           1.85252956011841  -12.06066986769606    0.84015588093129
H          -0.04285873661303  -12.38221384082820   -0.93280720956706
H          -1.62788423969965  -11.89152929260693   -0.82901576722769
