35
         -58.708004487059          0.000676676930
C           0.40105470405680   -0.45409072007643   -1.59851151079011
C           0.08930411919337    0.85958232167735   -1.83509096920139
C          -1.31399567948378    0.91061711789866   -1.75549789944508
N          -1.81845794458094   -0.27423935603822   -1.49191864487366
N          -0.77378589259189   -1.10398146079239   -1.39631312690118
C          -0.96033130030073   -2.44014221033367   -1.12657009557084
S           0.38027775507438   -3.52716761495211   -0.98310082400179
C          -0.71477074702445   -4.85811331937665   -0.66310076418264
C          -2.02928528290586   -4.43148078431564   -0.68174550137327
C          -2.16816343093197   -3.06857643260407   -0.94374491225675
N          -0.14957070133437   -6.06480006565731   -0.48772794070106
N          -0.94296196708853   -7.03860302801588   -0.18807571428944
C          -0.36839887961741   -8.25343832450525   -0.05585505587361
C          -1.10163450664734   -9.38511014379653    0.27175884959045
C           0.99999777384184   -8.69478950350701   -0.20544726434715
C           2.19293078335320   -8.05525218433239   -0.52165196152589
C           3.34474065398371   -8.81380552290550   -0.57908007097273
C           3.32563624733464  -10.18595277943746   -0.32882657305268
C           2.15259035360974  -10.84265341657276   -0.01336177045185
C           0.99208358703224  -10.08440332588666    0.04600561871113
N          -0.29949845947058  -10.46865319658590    0.33393746001402
C          -0.71025314791575  -11.81019154986531    0.63057165856471
H           1.33821617536543   -0.97082138282761   -1.55756383651724
H           0.76198769014693    1.66726829418001   -2.03610494136493
H          -1.96016435279318    1.75652405956847   -1.87982524947963
H          -2.84187289970193   -5.11371955199985   -0.51143096697514
H          -3.10049063365735   -2.53809698770046   -1.00220912176152
H          -2.15555738033786   -9.45415263535309    0.46128064874368
H           2.20218909243613   -6.99454223095499   -0.71385614649070
H           4.28410327841423   -8.34007914112568   -0.82308513248474
H           4.24762426408875  -10.74585709600941   -0.38328331786338
H           2.14327734258143  -11.90519466827145    0.17860759623485
H          -0.14894300345589  -12.20028450036996    1.48346055744241
H          -0.53458262203947  -12.46354798852997   -0.22871425939245
H          -1.77194498863183  -11.81944067062838    0.87061118284092
