31
         -59.495775743652          0.000367841663
C           0.86080794990864   -0.40604423019696   -0.12745470317327
C           0.77102736606400    0.99530017726909   -0.12652156974513
C          -0.51471142216571    1.43978143937092   -0.08565239906816
S          -1.64969897678049    0.15383222707010   -0.04951884605247
C          -0.36597003847872   -1.02503158044936   -0.08886866396826
C          -0.65058102794899   -2.41821893192051   -0.08160816583712
S           0.62300725249981   -3.59518200034177   -0.08363075673088
C          -0.54102170997437   -4.90055049215463   -0.09699185064084
C          -1.84026410900850   -4.40856182374139   -0.08886554566070
C          -1.89672410533266   -3.02374839855480   -0.07540438501904
N          -0.05194592614835   -6.14529223179133   -0.05301259937830
N          -0.89248372089269   -7.11342902230778   -0.19551887882320
C          -0.37322681325621   -8.35065106726226   -0.04292410638710
N          -1.14226014648920   -9.41051275792083   -0.28195144413278
C           0.93188710408190   -8.78623388196827    0.40032388332095
C           2.11540218487487   -8.16626316650905    0.79248076386338
C           3.17126359527378   -8.97204653121615    1.15938813450434
C           3.07398634943305  -10.36905038864262    1.14833466170366
C           1.91653287680377  -11.01233865781221    0.76957657842184
C           0.85335088457517  -10.19909229788984    0.39677190720188
N          -0.40918283130699  -10.45828142417728   -0.02235106618312
F          -0.93950661422905  -11.70292993255227   -0.19705632190544
H           1.78468269957810   -0.95527202454804   -0.15736848939563
H           1.62431990615356    1.64869406812252   -0.15492217192809
H          -0.86888009055141    2.45130932797022   -0.07423937077675
H          -2.68789137651603   -5.06938697169425   -0.08457780542677
H          -2.80898097149499   -2.45279583494539   -0.06674648657520
H           2.18658798636507   -7.09087499300455    0.79975663430012
H           4.10285604134318   -8.52034219877727    1.46509703481618
H           3.92988389625754  -10.95522707945109    1.44682290717545
H           1.83165378736175  -12.08737931997230    0.76193312150069
