36
         -68.709386423138          0.000674138181
C           0.38221716844846   -0.54956099132810   -1.82226644487301
C           0.19624889914106    0.82696923220938   -2.02625490535792
C          -1.10332023853862    1.20803096576287   -1.88604925316789
S          -2.13268313358716   -0.10791816067628   -1.49933952577386
C          -0.78474054096331   -1.21370850287446   -1.52656471829591
C          -0.97133849069868   -2.59898386940765   -1.26826054514538
S           0.35976484110199   -3.70881531738528   -1.28760229452417
C          -0.70807256549024   -5.04249530502828   -0.91325951382276
C          -2.02272673569671   -4.60716657704293   -0.78337209562886
C          -2.16490003320118   -3.24463660055437   -0.98037460327963
N          -0.14979340893953   -6.24963383566301   -0.78366545556780
N          -0.94973756908100   -7.23677103727091   -0.54057912921074
C          -0.33876585994931   -8.42803208896467   -0.37747482522304
N          -1.06173998314457   -9.51587218937268   -0.15915023715393
C           1.06413008807591   -8.77449981611453   -0.37491496807564
C           2.31273451225266   -8.18440677326611   -0.52323248652165
N           3.40458331315697   -8.92279753135477   -0.43384121401632
C           3.27836749177347  -10.22395268839083   -0.20133804267367
N           2.16492987969254  -10.91329562348357   -0.04150422933130
C           1.06917575119763  -10.16951561010390   -0.13219901798813
N          -0.23627026924299  -10.55474306949066   -0.01412920428760
C          -0.72365536806175  -11.81999859432895    0.22017079532530
C          -0.01228505026083  -12.97441385543230    0.39027252985119
C          -0.86007582045217  -14.07847286727008    0.60920927320092
C          -2.17759264840005  -13.74426986841019    0.60078633828343
S          -2.43392712279839  -12.06493217391482    0.32474814142722
H           1.33187936474752   -1.04978647421700   -1.88643021722173
H           0.99184152679747    1.50861263441165   -2.26805720086697
H          -1.52308943958155    2.18916575022697   -1.98650810723751
H          -2.81563206627957   -5.29405692355904   -0.55046823702600
H          -3.09978704218144   -2.71510138682572   -0.92285649649883
H           2.44092151042540   -7.12780530661312   -0.71248727569854
H           4.19913063652094  -10.78783942258902   -0.13430780006608
H           1.06040940383312  -13.01137065693483    0.35735712829068
H          -0.50031374109463  -15.07906265579543    0.76613030556143
H          -3.02448725951759  -14.38565280895401    0.74105353259256
