27
         -50.476646035675          0.000684543157
C          -1.16429945578202    0.09637100136984    0.02835523049773
N          -0.40329017901367    1.20935890909875    0.01028468157959
C           0.83729765991468    0.80039224308165   -0.02180019397600
N           0.92221982917902   -0.54743776312033   -0.02554390394471
H           1.75350391265646   -1.11590705652016   -0.04738531188684
C          -0.36270608190420   -1.03367923819995    0.00659564596029
C          -0.68116231974674   -2.42121574312856    0.01430589454806
S           0.56263633031018   -3.63127815410365   -0.01528865042267
C          -0.63007358465044   -4.91008083971143    0.01614180066983
C          -1.91287595629403   -4.38399355084385    0.04681080747834
C          -1.93934046817009   -2.99561810408962    0.04579917775552
N          -0.15091255515479   -6.16030389128963    0.00915464927756
N          -0.99900948071895   -7.12841440431494    0.03308748723173
C          -0.43819006804136   -8.37057024130185    0.02765681345161
C           0.94782203650398   -8.75667402913453   -0.00135458126274
C           0.98942437824058  -10.10762814662154    0.00755738864338
C          -1.18076320063965   -9.53184879952267    0.05305447324828
N          -0.31017460887402  -10.58815701968688    0.04091157963291
C          -0.64457441587439  -11.86846723356725    0.05905902490451
N          -0.92674030521972  -12.97815061829823    0.07485123430082
H          -2.23284014267946    0.15822595515459    0.05578124804559
H           1.69225571808183    1.44588889019604   -0.04275334847702
H          -2.77816759857242   -5.02150134101014    0.06910983592799
H          -2.83971893635559   -2.40893742046584    0.06740117971395
H           1.77519765049025   -8.07754693565639   -0.02535083162128
H           1.81698776734310  -10.78985190595865   -0.00635761900782
H          -2.24224592502848   -9.67409456235477    0.07859628773139
