20
         -37.163285345267          0.000520144704
H           0.95442757434176    0.00412655730743   -0.04493018499135
C           2.02616861894714    0.03891379253789   -0.05305922603099
S           2.81873489955579    1.55407074196644   -0.04932398371918
C           4.37674540849052    0.76401313421905   -0.06647545640632
C           4.23433937399961   -0.61181351770956   -0.07437402923263
C           2.89662344780726   -1.01539368297921   -0.06661055687955
N           5.46238556006585    1.56179749356606   -0.06731661209073
N           6.60834569011829    0.98419824895025   -0.08036110062008
C           7.68083286218192    1.82560184997473   -0.07772948480888
C           7.73533687159017    3.26343673405399   -0.06386309391602
C           9.04052360816685    3.61571391474705   -0.06526485738122
C           8.98234823921767    1.37166297200450   -0.08722922102947
N           9.80875766870324    2.46208472789523   -0.07943149708669
C          11.13184681765621    2.42648753970359   -0.08324190876623
N          12.27675508700918    2.39948409898265   -0.08655638237587
H           5.08386179686542   -1.26990244065804   -0.08504156697194
H           2.57910299211901   -2.04301538367624   -0.07068768317234
H           6.88368095646763    3.91222493237600   -0.05437883391769
H           9.51254545134812    4.57883873103315   -0.05745109592562
H           9.36580707534833    0.37137955570505   -0.09840322467718
