26
         -43.041496185606          0.000826718497
C           1.60684254255482   -1.09491330109118    0.76046322899617
O           2.21073096925412   -0.08016025271745   -0.01131336376788
C           2.89053810469171   -0.47502920223669   -1.10616697127913
S           3.59344929779640    0.77138159745829   -2.07744461358816
C           4.22380890328749   -0.43490364374567   -3.19451752583075
C           3.88087387044231   -1.70431705330834   -2.78417168787393
C           3.12696659073295   -1.73021767516964   -1.60388107309654
N           4.91417219010940    0.02785237211997   -4.25271096236464
N           5.36317434613780   -0.84397176844868   -5.08596862906001
C           6.04322035455946   -0.33618407934708   -6.14951814069960
C           6.35438807217461    1.01293778168679   -6.50141279309265
C           7.04422386543837    0.96127508076255   -7.67208469909735
C           6.57735514187193   -1.13719216146585   -7.15174824238029
N           7.17585578196915   -0.34475153629045   -8.06130836137004
C           7.84135567030267   -0.77703344840502   -9.25671432512819
H           1.09533569110298   -0.58358976685561    1.57357223742611
H           2.35613247317516   -1.77918916658129    1.16993286389225
H           0.88203590961195   -1.66235892285805    0.16889307478529
H           4.17722476312447   -2.57610832767049   -3.33866423201601
H           2.77659986293043   -2.63771541326537   -1.14622327793000
H           6.08493873034636    1.88063417168684   -5.93515912038852
H           7.45767402297174    1.75102301955542   -8.26943478197356
H           6.55292955533951   -2.20413181479160   -7.24861205782357
H           7.81114373052817   -1.86331190857769   -9.31732174771174
H           8.88428498675795   -0.45149553976210   -9.25384845250906
H           7.35158457278820   -0.36000904068183  -10.14018634611832
