26
         -46.296433449099          0.000557721932
H           0.85253446088834   -0.14134492608119    0.03890318948601
C           1.92403604012256   -0.10083062506626    0.04192739360908
S           2.70893385886958    1.42131633938546    0.03579613856464
C           4.27316784998475    0.64192606149674    0.04499006066384
C           4.13889783370078   -0.73281407507923    0.05227133288237
C           2.80213888025790   -1.14661782567635    0.05053442989634
N           5.34926863779039    1.45442305917779    0.04542058099047
N           6.50523819634800    0.89234122154185    0.05164152831496
C           7.56266670981744    1.74635023014554    0.05420547673310
C           7.59620774141576    3.18036184806066    0.05029608402001
C           8.90144954890334    3.54520704184423    0.05717054979698
C           8.87965429549239    1.31750951333048    0.06323254039185
N           9.68444536401230    2.41024026088239    0.06518426208339
C          11.06276191147676    2.39516352996382    0.07530897493698
C          11.97808808783202    3.41319123308535    0.07967327796336
C          13.24672930726121    2.78361225100134    0.09130073220802
C          13.00926703995887    1.44627020351528    0.09306163500527
O          11.68278642792949    1.19924422349328    0.08338350375253
H           4.99193854723462   -1.38645207179560    0.05869484329236
H           2.49257223169219   -2.17699688155968    0.05547673116770
H           6.73731726010203    3.81949693038159    0.04324686469759
H           9.34880979651443    4.51857035783696    0.05714960909345
H           9.27718532374346    0.32328311421205    0.06853923026813
H          11.78314785545548    4.46475359542178    0.07532974589728
H          14.20018595150930    3.26958670807671    0.09751918897649
H          13.66160084168653    0.59694868240503    0.10048209530781
