29
         -49.124124869132          0.000805191837
C          -1.19741406428810    0.11904345608959    0.01020568151287
N          -0.45469921566071    1.24659649686476   -0.01466340648067
C           0.79180609300923    0.85787160690014   -0.03599673256266
N           0.89839103247147   -0.48938327689928   -0.02595124320440
H           1.73786031862605   -1.04566091453238   -0.03765555042695
C          -0.37797843806822   -0.99618093050715    0.00399389771934
C          -0.67170764167787   -2.39065692390760    0.02134689210957
S           0.59816528785302   -3.57964056102103    0.00609582859814
C          -0.56816940035954   -4.88051351737568    0.03770743180878
C          -1.85824295967402   -4.38083182162276    0.05878795519888
C          -1.91406906896111   -2.99035013997642    0.04954638808314
N          -0.06846194183408   -6.12852659884920    0.03346699159930
N          -0.91912728629882   -7.09591181760336    0.05776859076342
C          -0.38431782653406   -8.34357717203232    0.04833051867007
C           0.97704988928306   -8.77782877900080    0.01570029400844
C           0.95176120769143  -10.13688782738289    0.01836067776335
C          -1.16436093668107   -9.49539764915515    0.06928389848704
N          -0.34896289183539  -10.56480893817928    0.05070916462079
C          -0.75350759200301  -11.94144148227215    0.06257793402146
H          -2.26699329394009    0.16308634339464    0.03106495220353
H           1.63702792314752    1.51601728829601   -0.05884384746230
H          -2.71064791003312   -5.03538873257123    0.07948610306140
H          -2.82774969578732   -2.42393537252496    0.06259403945271
H           1.83442599845296   -8.13700104427662   -0.00626637110066
H           1.75716473343085  -10.84557900655300   -0.00038351749508
H          -2.23172023507599   -9.58679126725843    0.09537754288930
H          -1.83998063679825  -12.00141799252301    0.08224552614212
H          -0.35479284726455  -12.44995254124601    0.94357801494540
H          -0.38649860119010  -12.45542088427447   -0.82890765492651
