33
         -58.301941395044          0.000532920785
C           0.92166887881299   -0.43256971005163    0.05398319672483
C           0.87383334255650    0.97179754689887    0.06088317489484
C          -0.39761407129547    1.45448943001986    0.06487527827822
S          -1.57120041211733    0.20035187400177    0.05847581848943
C          -0.32204957955742   -1.01534869302311    0.05289020602358
C          -0.64362647753821   -2.40178085459572    0.04685732020937
S           0.60588292439349   -3.60608790087465    0.03777956607918
C          -0.58327979681924   -4.88771260867065    0.03642234082636
C          -1.86954103835876   -4.36983996134884    0.04194832225301
C          -1.89919585235988   -2.98122521098447    0.04721372246166
N          -0.10272379382320   -6.14022310186423    0.03076894188795
N          -0.95785478582318   -7.10490084378115    0.03473301436253
C          -0.41253072234186   -8.34897164587629    0.03082040484364
C           0.96252029214008   -8.75739300929685    0.02247706908657
C           0.96922451919295  -10.11166913374016    0.02479400729881
C          -1.17164756202111   -9.50793700843224    0.03774190136711
N          -0.33010001479748  -10.57359489285804    0.03430894677231
C          -0.69589903352834  -11.90258777370367    0.04146280040039
C          -1.95337203801212  -12.43841538286939    0.04815574586298
C          -1.93980735541902  -13.84950980668033    0.05543748412996
C          -0.68756275132314  -14.36869787128342    0.05516978911811
S           0.52235414681228  -13.14549495063533    0.04453722864109
H           1.82911141728085   -1.00934576316998    0.04973283846840
H           1.74750539129745    1.59864912931083    0.06201573557179
H          -0.72329879023994    2.47560400766641    0.06926797146719
H          -2.73312827536222   -5.00992205641399    0.04163549791590
H          -2.80058336753769   -2.39276139676123    0.05221825343825
H           1.80434413682405   -8.09620778969775    0.01573847570416
H           1.78913312429584  -10.80352351702188    0.02074056198376
H          -2.23655221960854   -9.61163638909436    0.04516123752504
H          -2.85555247100804  -11.85597542621834    0.04724724282292
H          -2.83218416351924  -14.44879709225165    0.06138028377861
H          -0.38727360119487  -15.39699219669805    0.06014562131205
