33
         -59.954570904055          0.000269612086
C           0.85177554533520   -0.37518820732570   -0.02587568887858
C           0.56643068320704    1.00497237491827   -0.02335562471075
C          -0.79236154083516    1.10763017037496    0.00776445327786
O          -1.36487775304007   -0.10599263090333    0.02452082001854
C          -0.36479547014259   -1.01946600498919    0.00414218468494
C          -0.67949578329564   -2.41242494773477    0.01608611455570
S           0.57682161289708   -3.60250000223381   -0.00721471730386
C          -0.60477017176997   -4.89320375541217    0.02531589111016
C          -1.89333720539271   -4.38371392540065    0.05168452569707
C          -1.93249553019876   -2.99409825442244    0.04640740096111
N          -0.11567091904371   -6.14306711392281    0.01941474659087
N          -0.96053506789190   -7.11576482256677    0.04796666206739
C          -0.39883150799505   -8.35339417756887    0.03940597825023
C           0.98331366813725   -8.73612912212043    0.00232038264351
C           1.01938575964025  -10.09044501879086    0.01040576069891
C          -1.13572032749444   -9.52594023053175    0.06820645934462
N          -0.27194338033042  -10.57330097618011    0.05057912521727
C          -0.61895351639070  -11.90694584396549    0.06993399790808
C           0.15021886415804  -13.03955992375833    0.05860070924465
C          -0.76361041373207  -14.12076444556886    0.09086751894615
C          -2.00499172745886  -13.57034551365971    0.11944754030699
O          -1.92809424518635  -12.22313065433091    0.10665360653827
H           1.81331353641420   -0.84539322785523   -0.04673465040842
H           1.27236329591743    1.80961531782232   -0.04201236838194
H          -1.44630107881437    1.95700532776540    0.02044798259051
H          -2.75256235963469   -5.02928155596871    0.07351438600051
H          -2.83478130299756   -2.40898824391548    0.06403336156651
H           1.81062060528094   -8.05741470011375   -0.02594936977212
H           1.85348784051073  -10.76218749949684   -0.00907825794604
H          -2.19641684682480   -9.66833972559955    0.09964143385160
H           1.21745106705999  -13.10216660345630    0.03117486959517
H          -0.51911662936873  -15.16267112513378    0.09245113887316
H          -2.98513970071950  -14.00087493795393    0.14863362686175
