33
         -59.590640379251          0.000596545559
C           0.83743256797563   -0.42591607600516   -0.03180772490129
C           0.62446351714562    0.92747049382075   -0.03287182098267
C          -0.77568828842355    1.06602460659752   -0.00317345908832
N          -1.36927834350172   -0.10617316057922    0.01463428588777
N          -0.38699175261072   -1.01415120012549   -0.00283542639319
C          -0.66920857687813   -2.35970685526527    0.00951728167890
S           0.59445554738377   -3.54132300570507   -0.01172266988101
C          -0.59249361030725   -4.83170009437059    0.02080356727932
C          -1.87740524607474   -4.32100625684798    0.04562657999943
C          -1.92129508437148   -2.92740754620866    0.03925528083477
N          -0.09737651906721   -6.07899290952395    0.01680728807456
N          -0.93726730035508   -7.05518932335324    0.04244458826892
C          -0.37331236976699   -8.29090116328301    0.03676410110934
C           1.00886854044046   -8.67423110749914    0.00611433154401
C           1.04391804011174  -10.02864874297133    0.01415051643578
C          -1.11095020122455   -9.46369156113274    0.06215090926780
N          -0.24791111321207  -10.51060614272390    0.04835032818781
C          -0.59518760713902  -11.84448999405567    0.06544751323169
C           0.17349756953308  -12.97741822727771    0.05531480816242
C          -0.74132691123444  -14.05790029465480    0.08385783745716
C          -1.98251711952519  -13.50658532159082    0.10869954783228
O          -1.90454490486687  -12.15965565366363    0.09795452382943
H           1.73586304979551   -1.00869472742659   -0.04881153604100
H           1.35776766570917    1.70661813434923   -0.05197422129823
H          -1.35733766029394    1.96609291858600    0.00566051724404
H          -2.73661968089201   -4.96624417092275    0.06742286522278
H          -2.81574503327556   -2.33250731371725    0.05541890639999
H           1.83788172298141   -7.99723590110609   -0.01823177792780
H           1.87815490487244  -10.70036402788696   -0.00146647593687
H          -2.17195207912632   -9.60554850434643    0.08861787271875
H           1.24081729364418  -13.04061533690374    0.03113477779963
H          -0.49767462115584  -15.09997158472010    0.08531549602512
H          -2.96295639628985  -13.93665994948651    0.13427138795867
