26
         -46.296359916956          0.000926192478
C           0.86446381415268   -0.34827920814961   -0.02013828105321
C           0.56358256939993    1.02887435791438   -0.02055977080587
C          -0.79595171695602    1.11643580092476    0.00827648758036
O          -1.35479048652045   -0.10354121640251    0.02705363833369
C          -0.34441504659214   -1.00603621936149    0.00910368525497
C          -0.64801276639358   -2.40162086543362    0.02184989177331
S           0.61396691727365   -3.58639791103025   -0.00064879342899
C          -0.56159999558378   -4.88136625567009    0.02851827283797
C          -1.85161212476038   -4.37834942613861    0.05475758747939
C          -1.89772058845911   -2.98867175196138    0.05126817303395
N          -0.07567535412445   -6.13615291825613    0.02080693480232
N          -0.93439295033146   -7.09458568200008    0.04110615194563
C          -0.40560213434262   -8.34798691048087    0.03021303134456
C           0.95691222475698   -8.78194531510861    0.00022704332487
C           0.93705227150271  -10.14053003642587    0.00091444479750
C          -1.18861826760451   -9.49490703995198    0.04766844805899
N          -0.36447213087565  -10.56134378568145    0.02963036004701
H          -0.65967147313355  -11.52387112620452    0.03607731556459
H           1.83135910968926   -0.80734586308619   -0.03870580192932
H           1.26014420044060    1.84150932849379   -0.03966471015977
H          -1.46002106264855    1.95804726670466    0.01843055084069
H          -2.70757099864343   -5.02814420985110    0.07497578908923
H          -2.80295619519017   -2.40836960795398    0.06842127227114
H           1.81086962875536   -8.13689316948927   -0.01868196895324
H           1.74352493588776  -10.84715485088519   -0.01682283491263
H          -2.25494237969922   -9.58909338451474    0.07104308286287
