33
         -59.609831742084          0.000745740336
C          -1.21253530428903    0.09744885655542    0.00400548280950
N          -0.47034920787306    1.22471298094851   -0.02286411433224
C           0.77637422762826    0.83646943925214   -0.05255912237159
N           0.88365686541062   -0.51058065795338   -0.04245276430185
H           1.72363797794299   -1.06614291386241   -0.05842222596038
C          -0.39244027901223   -1.01791844991194   -0.00557921273237
C          -0.68677834911053   -2.41156634897694    0.01446685081050
S           0.58024061856477   -3.60176283605742   -0.00757913574339
C          -0.58843692812384   -4.90118715416924    0.03358468877697
C          -1.87878428486656   -4.39886007802841    0.06194211259007
C          -1.93136187110995   -3.00914197118886    0.05090605582339
N          -0.08702090090326   -6.14531671633760    0.02776086802385
N          -0.92758679753798   -7.12209151916407    0.06335645726987
C          -0.36794785993222   -8.35941907227184    0.05068381731622
C           1.01147319128598   -8.75084362034843    0.00203331368104
C           1.03885526146165  -10.10562476377059    0.00855718155535
C          -1.11176277475632   -9.52787951594774    0.08434844437561
N          -0.25504931865311  -10.58017784360166    0.05862976305617
C          -0.61294218083714  -11.91111077533274    0.07827325613050
C           0.14503376509554  -13.05105921117115    0.06033500583197
C          -0.77938871959775  -14.12312344966635    0.09607877362810
C          -2.01509631682252  -13.56059124623237    0.13365619900860
O          -1.92489589108417  -12.21442580675586    0.12253542816786
H          -2.28203170197717    0.14123407822050    0.03048388885004
H           1.62091014341493    1.49538530942547   -0.07971480402019
H          -2.73234235041489   -5.05175956134330    0.08880062285593
H          -2.84317101032648   -2.43984589839758    0.06871419167406
H           1.84434993746874   -8.07894031899151   -0.03237892517050
H           1.86900710387954  -10.78215542024045   -0.01847707607136
H          -2.17309511599524   -9.66382721694914    0.12417461703894
H           1.21144069761507  -13.12405847526387    0.02623545861519
H          -0.54550440688566  -15.16740133484213    0.09422574346300
H          -2.99929821965861  -13.98133848762497    0.16811915935110
