33
         -59.129176959247          0.000342959276
C           0.91802931882252   -0.46402635150887   -0.04233127417220
C           0.86798317012130    0.94034105093027   -0.05244964905284
C          -0.40357432749638    1.42141728548258   -0.01911797279177
S          -1.57464172816659    0.16567505388872    0.02583776983493
C          -0.32419882785385   -1.04830676453416   -0.00153285089974
C          -0.64500806816515   -2.43486157085173    0.01842391502027
S           0.60376166513549   -3.63955419390702   -0.01383314527652
C          -0.58523391912274   -4.92097830578357    0.03282481393069
C          -1.87049305926541   -4.40283218979045    0.07119591452196
C          -1.89973432912445   -3.01396633884177    0.06301019139286
N          -0.10278313206618   -6.17265901106729    0.02475066248691
N          -0.95237581871240   -7.14162480420503    0.05807409761058
C          -0.39585646112111   -8.38120527544835    0.04770050911503
C           0.98504563071145   -8.76836683165831    0.00698752302757
C           1.01672960568092  -10.12268978100145    0.01420660918449
C          -1.13654656080764   -9.55156856651855    0.07788639734030
N          -0.27609637901249  -10.60143441770041    0.05743955606988
C          -0.62600201821616  -11.93441139125688    0.07702303217458
C           0.14165676071554  -13.06809833701736    0.06842374207864
C          -0.77373693844410  -14.14798370150092    0.09934186992405
C          -2.01442739618901  -13.59579400273798    0.12415653286049
O          -1.93564328258038  -12.24867031401588    0.11128901112891
H           1.82620816815103   -1.03922717703774   -0.06396591594981
H           1.74027431129905    1.56842031019706   -0.08260059482874
H          -0.73072594256827    2.44200332903309   -0.01746501880400
H          -2.73383483796544   -5.04234378283374    0.10350587476768
H          -2.80060833725068   -2.42524267622512    0.08848219631540
H           1.81445125858328   -8.09223259101852   -0.02297666399403
H           1.84858648423355  -10.79715669764601   -0.00795744726262
H          -2.19763391155442   -9.69056239142055    0.11171723348757
H           1.20891402017344  -13.13235370277410    0.04405670916796
H          -0.53054667846146  -15.19024287515028    0.10266931286303
H          -2.99528843948344  -14.02497298607955    0.15123705872861
