28
         -49.356510384681          0.000419251514
C          -1.21788725836573    0.09402376859869    0.04018624516734
N          -0.49012743627736    1.23165939254274    0.04122586280233
C           0.76147491516114    0.85983498788948    0.02278620832039
N           0.88595529341783   -0.48620620345580    0.00961461497897
H           1.73338272122293   -1.03014412758392   -0.00539662609389
C          -0.38361227578017   -1.01008957527149    0.02068031050403
C          -0.66184938842002   -2.40763699662574    0.01251978171430
S           0.61850205582585   -3.58615362006648   -0.02313135174632
C          -0.53648329365674   -4.89648456399912   -0.00876355561231
C          -1.83105185223777   -4.40832541175914    0.01948068347395
C          -1.89878788222566   -3.01854805260914    0.03107930426341
N          -0.03241076584356   -6.14274109405338   -0.03222400408147
N          -0.88708771532761   -7.10848756578435    0.00380480898060
C          -0.36501127131984   -8.35813492737428   -0.02733681275281
C           0.98622805790645   -8.80966041680491   -0.10580034145354
C           0.94897849123738  -10.17140603140554   -0.09757542190240
C          -1.16232936516071   -9.50218986726915    0.03006843212415
N          -0.35461404539420  -10.57211347868124   -0.00909508217875
N          -0.76234585481658  -11.90191295981333   -0.05709015701120
H          -2.28810831937883    0.12340385673053    0.05295589900089
H           1.59794026272362    1.52944993036742    0.01855441970023
H          -2.67730117121660   -5.07091703903225    0.02975728743542
H          -2.81722511238668   -2.46017378958075    0.05364694473096
H           1.85127470526115   -8.18141034879383   -0.15909510857565
H           1.73995240399004  -10.89403590150869   -0.14315557260605
H          -2.22890563310603   -9.58501262425671    0.09146865594861
H          -1.73190547155223  -11.97678506075674    0.23676993323433
H          -0.17268479428009  -12.47608227964267    0.54053464163444
