28
         -48.875871912389          0.000779377814
C           0.90010551917609   -0.43089593173816    0.01675402680102
C           0.81294236614087    0.97228480784459    0.01589565759972
C          -0.47058326647187    1.42003833073480    0.01064161652760
S          -1.60888134734486    0.13266402913186    0.00678518320111
C          -0.32606936255543   -1.04821800182231    0.01274000155875
C          -0.61603150683240   -2.44169680121162    0.01261068352863
S           0.65635678398472   -3.62547353307924    0.00299559449267
C          -0.50916111318189   -4.92712429666105    0.01657780921351
C          -1.80348311863794   -4.43285151429991    0.02206970514145
C          -1.85904434509339   -3.04433252097454    0.01942611482663
N          -0.01959990086989   -6.17909967848835   -0.01131833010306
N          -0.88030867907470   -7.13643124588636    0.06758615590087
C          -0.37203699581313   -8.39065022903967    0.00262332026709
C           0.96913375304254   -8.85215416798886   -0.15411592191714
C           0.92143280768891  -10.21334188273293   -0.15487409735605
C          -1.17407188670101   -9.52878819982770    0.09645175577048
N          -0.37876441386582  -10.60484237928329    0.00284392992732
N          -0.79669127077537  -11.93193534829153   -0.03328841273047
H           1.82354797694626   -0.98156381038624    0.02062254601978
H           1.66878273881776    1.62336338373466    0.01894682991287
H          -0.82532242831648    2.43134642988016    0.00819498520760
H          -2.65499459973807   -5.08874666817578    0.02462038014130
H          -2.77175600711262   -2.47344615340741    0.02405758237381
H           1.83440370750600   -8.22935579971599   -0.24963470850692
H           1.70205101267460  -10.94227812386703   -0.24953597093025
H          -2.23644603297622   -9.60365356994656    0.21495506087681
H          -1.76443904802677  -11.99633941484268    0.26622093872470
H          -0.20993134259002  -12.50685770965875    0.56596756353019
