21
         -40.241221686371          0.000613493186
N           1.01499466890163   -0.15061530705980   -0.17925737615120
C           2.37362186921389   -0.04300947191948   -0.08288204196155
S           3.14026765930132    1.50918733576864   -0.05415146980817
C           4.73124036343495    0.75200174926789   -0.03414737619110
C           4.60984218934243   -0.62491408436677   -0.04522163900356
C           3.29047756068765   -1.07235939484249   -0.07210856630320
N           5.78178275350064    1.57958391612411   -0.01843769599581
N           6.95805200660405    1.05390629930199   -0.00257415259577
C           7.98475219458878    1.95354038938847    0.00769310905688
C           7.96429002980177    3.38126214285403    0.01306129011376
C           9.25973271098871    3.80755904237972    0.02150071896917
C           9.31861028990855    1.56428313411164    0.01338451640062
N          10.03770263710063    2.69734306850246    0.02091744663716
F          11.40745201924324    2.73280945526375    0.02755097723598
H           0.47437649712467    0.66412702057970    0.05877629505713
H           0.61174336369391   -1.03386644916154    0.08948085600916
H           5.47626806502877   -1.26104190930531   -0.03342064930085
H           3.00273679415209   -2.10863148769562   -0.08639869026414
H           7.08313940134092    3.98915342829911    0.01115242034520
H           9.68916827818183    4.78867889442516    0.02762084831301
H           9.76535864785963    0.59260222808434    0.01065117943730
