26
         -50.098084276138          0.000621154715
C           0.85870919935335   -0.41389543024191   -0.03113879202474
C           0.65013216721814    0.93954308794134   -0.03249297768028
C          -0.75010813847407    1.08323323689654   -0.00260111229282
N          -1.34768980723481   -0.08609264655365    0.01479389745860
N          -0.36842645269347   -0.99829571673028   -0.00228031971135
C          -0.65703679095733   -2.34173160562946    0.01004077761126
S           0.59826655261439   -3.52986491479709   -0.01128490553082
C          -0.59701902487679   -4.81273097817936    0.02040229845928
C          -1.87915019626455   -4.29375184281683    0.04555363556998
C          -1.91408666594862   -2.90094260165967    0.03972799920783
N          -0.11178184668914   -6.06417342162707    0.01691293240847
N          -0.95792467775175   -7.03194176313086    0.03833890844388
C          -0.40337088296533   -8.27652123549172    0.03457251112037
C           0.96810431441399   -8.67673995072301    0.01133503459484
C           0.99314146363536  -10.03930652418275    0.01818990130486
C          -1.16869907802622   -9.43826667643045    0.05499012962367
N          -0.29809391473653  -10.45594962158893    0.04431579916732
F          -0.66439357067723  -11.77328509252397    0.05818466558797
H           1.75456570231076   -1.00050599048766   -0.04799775113940
H           1.38548796524440    1.71666296997561   -0.05166758631262
H          -1.32817914532241    1.98551951376553    0.00603767594056
H          -2.74245190233105   -4.93352048817636    0.06729843500391
H          -2.80383492956585   -2.29932358294455    0.05611434655634
H           1.80721699254494   -8.01243912244995   -0.00774248311572
H           1.80377866741474  -10.73904582735842    0.00695852601807
H          -2.22910600023499   -9.57692377485501    0.07534845373055
