30
         -53.179318434739          0.000474385045
C           1.29150746243911   -0.52061603042081   -0.88972529721074
O           2.16899307199425   -0.02566677948539    0.09893314942412
C           2.78993068431512   -0.93622846918756    0.87096630400110
S           3.86478499162176   -0.32741751106237    2.08071586223367
C           4.22916068830281   -1.96837189755526    2.60179580883896
C           3.53198767673252   -2.88730031383976    1.84605771653094
C           2.71799756156519   -2.30668941537609    0.86722082983683
N           5.09576782634003   -2.09931605571764    3.62020782665769
N           5.35849823487098   -3.29459688430603    4.01898502970382
C           6.23781538591285   -3.37540887630795    5.05495081186253
C           6.93469125146763   -2.34385767846098    5.76221756031518
C           7.68443819605436   -2.95531270248942    6.71340038070831
C           6.61591717643599   -4.57625487407556    5.63088353902023
N           7.49109375620373   -4.31755939529314    6.63657124941703
C           8.07012507376806   -5.27464504206151    7.44518047721617
C           7.96117668913293   -6.64576641761358    7.45248375214844
N           8.72153204181764   -7.16238765392501    8.44923484596013
C           9.28328867467363   -6.15117450324967    9.04210588163405
N           8.92422838528547   -4.96955572775630    8.47369828275525
H           9.22211623556840   -4.04900300404281    8.74959594701073
H           0.90141030127771    0.35538230584639   -1.40366794897373
H           0.46669014075541   -1.08141685910252   -0.44016249612673
H           1.82027103727498   -1.16051351806618   -1.60221973577427
H           3.62555455985241   -3.94437410488547    2.01646775860821
H           2.10642108051457   -2.87700266538570    0.19177441386521
H           6.86251368582492   -1.29494103571272    5.56041479865057
H           8.34438900192623   -2.52039452468833    7.43893886819084
H           6.31154919461691   -5.57190825790234    5.38465182711639
H           7.39083506995859   -7.28309836133378    6.80968971126581
H           9.95004486349678   -6.21789374654128    9.87727284511323
