26
         -45.951619253017          0.000554856631
C          -1.19425018313091    0.11323041710687    0.01612220932845
N          -0.45133299337274    1.24037892655210   -0.00910669033369
C           0.79519877481535    0.85143507446130   -0.03052539164664
N           0.90154715645011   -0.49581166363904   -0.02343994319361
H           1.74119342887296   -1.05185167625263   -0.03682945326750
C          -0.37495493515436   -1.00235659326491    0.00645394344521
C          -0.67010693095440   -2.39637562236084    0.02106541105508
S           0.59680804195158   -3.58778526105512    0.00282671868106
C          -0.57225154301167   -4.88569540305441    0.03190345218529
C          -1.86167896149274   -4.38352801757446    0.05483204338482
C          -1.91434616493858   -2.99324212909872    0.04886061838618
N          -0.07678866434591   -6.13546986065151    0.02638229259476
N          -0.93053448512107   -7.09894871891853    0.04549247066820
C          -0.39943302549395   -8.35028484709629    0.03666257794403
C           0.96277841516023   -8.78585976967908    0.00830868862213
C           0.94126654179113  -10.14462356253929    0.00986392050094
C          -1.18375116710826   -9.49678095929083    0.05418844548457
N          -0.36092348397871  -10.56393141978413    0.03775213798279
H          -0.65722006339750  -11.52623523458915    0.04470088641803
H          -2.26379971347435    0.15766267315830    0.03790789744730
H           1.64046129294078    1.50953940553311   -0.05281439499611
H          -2.71540368054854   -5.03636559471196    0.07474680835335
H          -2.82653245384757   -2.42455573358602    0.06378514931239
H           1.81876499857798   -8.14336064247301   -0.01034945548210
H           1.74738850958485  -10.85187946456901   -0.00669777863098
H          -2.25059871077388   -9.58888432262291    0.07682743575612
