28
         -49.732932577965          0.000681387965
N           0.91170264276292   -0.08326850016955   -0.13804407319796
C           2.27049241240601    0.03752947071209   -0.02839430380051
S           3.02209704917302    1.59808602688022   -0.01102914675223
C           4.62067864788493    0.85709366023640    0.03611927399333
C           4.51224953366904   -0.52021249812770    0.04080806480125
C           3.19678837804253   -0.98119989482183    0.00485113293908
N           5.66284696963227    1.69606424642128    0.05400981063829
N           6.84454112934969    1.18109414179023    0.09595794164054
C           7.86167658856485    2.08691106848153    0.10684549255513
C           7.82438055682100    3.52024859350059    0.08750233436834
C           9.10929825424438    3.95152078968867    0.10814632485807
C           9.19595457178506    1.72491882958721    0.13892497276061
N           9.94832678966646    2.85849219448497    0.13890169731117
C          11.32419907387747    2.91072039252267    0.16287298083703
C          12.18805299273328    3.97302878559067    0.16963307695522
C          13.48663939547336    3.40867510517487    0.19569721613142
C          13.31720459229602    2.06132737480360    0.20283850022804
O          12.00437954984794    1.74726542570304    0.18304195106726
H           0.36794342540670    0.73232206449434    0.09210238459368
H           0.51749690757143   -0.96166344403228    0.15834398526563
H           5.38510682491058   -1.14691811095303    0.06985406773669
H           2.91995652911930   -2.02066961374620    0.00046099429156
H           6.93447192289255    4.11496626018010    0.06206116603799
H           9.50763598776789    4.94603602570643    0.10308838511392
H           9.64229137782161    0.75210758803167    0.15967994830563
H          11.94059965790071    5.01336481402737    0.15790195317552
H          14.41424640680065    3.94252411975248    0.20734833867381
H          14.01124183157842    1.24589508408019    0.22050552947146
