23
         -39.478650773955          0.000731741655
N           0.93154504900033   -0.12673200265150   -0.23150303428664
C           2.29447292259772    0.00360084119329   -0.14729491008978
S           3.03630803750892    1.57039627197431   -0.15762046972995
C           4.63968951693272    0.84090049419603   -0.12527508156277
C           4.54132163021199   -0.53513668542605   -0.10743028500211
C           3.22705541680535   -1.00676266606863   -0.12008362474906
N           5.68071703629328    1.68646999977235   -0.13346069568600
N           6.85989061379011    1.16798144036334   -0.06738518582403
C           7.88874634968363    2.05698517906504   -0.08983909238759
C           7.89607115207202    3.47771471226818   -0.20065916242202
C           9.20114488763440    3.87151801886463   -0.16908771297796
C           9.22038792969507    1.66065412412873    0.01112659200753
N           9.98692481512845    2.76406519208958   -0.03431485965203
N          11.38119562586346    2.79252647570287   -0.04125869515957
H           0.39283655510034    0.69073015028185    0.00380270522921
H           0.55075452006088   -0.99673025167785    0.10624258645376
H           5.41816283127981   -1.15667753127815   -0.08809357943668
H           2.95879846442849   -2.04849368128356   -0.11191143137587
H           7.03026802163123    4.10076918660688   -0.29080101708375
H           9.64038776543740    4.84822179916829   -0.22610925283133
H           9.63302246439217    0.67638976481374    0.10694335722186
H          11.73995106562828    1.88829250789492    0.25092521408542
H          11.72151732882390    3.51494666000205    0.58942763525916
