29
         -49.468797631428          0.000749046996
C           0.86405417680130   -0.34814769048201   -0.01885204898207
C           0.57362302279760    1.03118093845991   -0.02267304834733
C          -0.78532560642738    1.12923465933274    0.00386804581572
O          -1.35372006197371   -0.08688246130630    0.02088622867124
C          -0.34985622738328   -0.99688771531607    0.00873518612016
C          -0.66046682310083   -2.39093679443366    0.02297788178427
S           0.59998113045984   -3.57889037993909    0.00636092729269
C          -0.57758007410088   -4.87203855386192    0.03478250997424
C          -1.86676391980888   -4.36663882175061    0.05596796889006
C          -1.91061467882219   -2.97637206593122    0.04908219346482
N          -0.08916281274458   -6.12486019769852    0.03043912548866
N          -0.94364134168030   -7.08870396910859    0.05249805581204
C          -0.40545276403250   -8.33584077014382    0.04493789775804
C           0.95958293277120   -8.75922909616947    0.01742084725761
C           0.94562310061675  -10.11827022955790    0.02085072101470
C          -1.17623354102633   -9.49360662257306    0.06390456133359
N          -0.35187251928639  -10.55675958765796    0.04890773999181
C          -0.74427542352083  -11.93687239311952    0.06043306868545
H           1.82735727130385   -0.81500770461428   -0.03463712841893
H           1.27682925072639    1.83829283236760   -0.04213515081222
H          -1.44261633628534    1.97606825403821    0.01075806712978
H          -2.72398231577048   -5.01500212537887    0.07534260635381
H          -2.81527866768194   -2.39469423806896    0.06265190242541
H           1.81008486246926   -8.10934458884792   -0.00187151481572
H           1.75678803851515  -10.82050140080864    0.00543877189742
H          -2.24292545823898   -9.59431103662845    0.08629440234527
H          -1.83021618706528  -12.00683504382325    0.07721742557666
H          -0.34326834266648  -12.44142027479516    0.94273564293609
H          -0.37022068484445  -12.44813292218281   -0.82977288664339
