33
         -59.127268844311          0.000593124513
C           0.86877664471295   -0.32796387414266   -0.06008765752722
C           0.57354020562816    1.05016522761656   -0.05333269147009
C          -0.78553089809043    1.14325882337558   -0.00556083190025
O          -1.34895836121072   -0.07435447449859    0.01764253440024
C          -0.34271266203100   -0.98109271851371   -0.01548850613063
C          -0.65236624222927   -2.37506671060642    0.00043809498166
S           0.60229400185053   -3.56632766300330   -0.03813980670809
C          -0.58017687547652   -4.85548739455796    0.01036841111594
C          -1.86792804270618   -4.34459927144987    0.05284501531217
C          -1.90567088092487   -2.95520660407436    0.04724037783444
N          -0.09774756210847   -6.10812857574924    0.00351585972452
N          -0.95318077348232   -7.07134553271116    0.04012391972052
C          -0.41055721427595   -8.31662736940082    0.03568442570724
C           0.96303965576548   -8.72740201754987   -0.00493076788409
C           0.97111203719066  -10.08204483721633    0.01218931477574
C          -1.16800644177257   -9.47532735214585    0.07560563244850
N          -0.32944342693181  -10.54191325167044    0.06161931370425
C          -0.70898497925727  -11.86674927628098    0.09366332726270
C           0.08651345823567  -12.97841703916529    0.08184072978372
C          -0.65768901602745  -14.17663825460923    0.12595874663421
C          -1.99645821953638  -13.96842138932520    0.17038107320356
S          -2.39440808604883  -12.29400403394368    0.15973962351710
H           1.83365297581673   -0.79071626022254   -0.09288386866575
H           1.27320085320107    1.86008872900887   -0.08013392834946
H          -1.44564615345993    1.98771267424257    0.01562380336036
H          -2.72730372816747   -4.98953996999421    0.08658199882327
H          -2.80670731550919   -2.36865846150245    0.07618827441155
H           1.80540247457700   -8.06762721589524   -0.04152878053616
H           1.79675389806792  -10.76422695925052   -0.00645989447427
H          -2.23277256053708   -9.59015190407072    0.11282870130876
H           1.15946761199539  -12.95335777524734    0.04338411660363
H          -0.20640582433286  -15.15229692685175    0.12445320922724
H          -2.78606855292507  -14.69133234059387    0.20913022978462
