30
         -53.527596850151          0.000749842205
C           1.30732144673999   -0.63169512489625   -0.75206876860938
O           2.16295414184116   -0.04206859373510    0.20290211863582
C           2.82647848763615   -0.87818035642498    1.02331005008914
S           3.83370606274549   -0.15162836891674    2.22646526310726
C           4.28440266522871   -1.74238426523005    2.82855408450750
C           3.66528972011100   -2.73490875555269    2.09882427102110
C           2.84058028422562   -2.24909566874653    1.07769426185952
N           5.12384805973251   -1.77331697269487    3.87778562167412
N           5.43550970977438   -2.93056064894325    4.34767245525003
C           6.27259337430735   -2.91212144369145    5.42000401449796
C           6.88387553232183   -1.80982797058986    6.10421439006258
C           7.61588199444287   -2.33033870435601    7.11964716765502
C           6.68098274038391   -4.06127141467567    6.07430636777378
N           7.49204983126400   -3.70298632383005    7.10383794378523
C           8.08226739056820   -4.56908202948201    7.99823456803631
C           8.89703295044375   -4.34284926164695    9.07488865604982
C           9.17974511654670   -5.62196845894857    9.61340120277414
C           8.52308840782504   -6.51857005546525    8.83289719049280
O           7.85212452713915   -5.88777254084810    7.84627725052184
H           0.85386774092467    0.19637884298912   -1.29277149421733
H           0.52719595217051   -1.22720143176305   -0.26849975156575
H           1.86726574526330   -1.26328982172041   -1.44818535847417
H           3.81938696012704   -3.77600066193274    2.31679184965017
H           2.28286179333406   -2.88506110002712    0.41431813160961
H           6.76843817439527   -0.77802800006599    5.84293050039143
H           8.21900829950040   -1.84343391976264    7.85919996199542
H           6.44352819593412   -5.08593425350497    5.87469447819863
H           9.24917081520293   -3.40072993340610    9.43830122290878
H           9.78950143238788   -5.83489421874322   10.46673324369668
H           8.44980244748273   -7.58652854338838    8.86390910662190
