26
         -45.469063730978          0.000925561812
H           0.89754217942500   -0.04765877822101    0.02731914055950
C           1.96878846428604   -0.00037281870986    0.02979432280032
S           2.74384894037479    1.52709058814811    0.02223370635293
C           4.31265979069883    0.75812497371245    0.03094527342884
C           4.18695174585855   -0.61773499769253    0.03931832319188
C           2.85354342266332   -1.04065517153216    0.03870165417764
N           5.38986909794377    1.57042262775051    0.03192074348721
N           6.53965005611975    0.99569438507897    0.03544389676574
C           7.61342876802876    1.82743948098463    0.04100799076862
C           7.68965582288438    3.25943703666240    0.04240304625210
C           9.00521208988614    3.58464560384700    0.05173958416644
C           8.91790084274597    1.36289103492750    0.04945867830902
N           9.75798248616070    2.42746592572275    0.05631821151430
C          11.13533970157849    2.36383803882527    0.06893637412220
C          12.03542150025929    3.39228601165154    0.07719930663876
C          13.37273010857353    2.94087426746823    0.09111682899224
C          13.47646519798153    1.58937743195856    0.09321968220368
S          11.93755656310895    0.81926434502305    0.07818166872965
H           5.04559570015785   -1.26406983445028    0.04590742688342
H           2.55127008620846   -2.07312546552584    0.04462038836771
H           6.85084610298063    3.92491134777064    0.03699260391082
H           9.47482187452949    4.54744593487790    0.05572123802512
H           9.27784851204039    0.35353114853076    0.05141478042633
H          11.76476816985282    4.43158788117838    0.07366362492140
H          14.21926165976357    3.60330784991262    0.09931920085224
H          14.36071111588897    0.98457115210041    0.10273230415191
