19
         -36.804023071529          0.000797487788
H           0.83577278161347   -0.01536640364587   -0.02305750463970
C           1.90730449056370    0.02590492119588   -0.02966939088787
S           2.69115563095148    1.54762624686250   -0.02785171365084
C           4.25462913777877    0.76897759836042   -0.04135078020614
C           4.12129272927609   -0.60662238968196   -0.04656200052693
C           2.78536472418257   -1.02077875143700   -0.03975689715828
N           5.33447173779117    1.57697694653281   -0.04252120977884
N           6.48434685289061    1.00724268347942   -0.05454065668015
C           7.55221874893360    1.85351075129751   -0.05281503341027
C           7.60386372332976    3.28143706306433   -0.03967851259874
C           8.91900557885101    3.63985690557343   -0.04269580973023
C           8.86615137537200    1.39649497065064   -0.06356411161570
N           9.63929687108717    2.48994277259359   -0.05703064568465
F          11.00695097888896    2.45603040022073   -0.06365232770189
H           4.97548858412149   -1.25874606116538   -0.05466410586797
H           2.47586879990312   -2.05109263761768   -0.04214225124465
H           6.75357167196516    3.93184801746090   -0.02948895122628
H           9.39845119525607    4.59752991250027   -0.03592000742078
H           9.26196438724381    0.40267705375546   -0.07477808997008
