26
         -50.462249032982          0.000625187211
C           0.87679008765589   -0.34549262110212   -0.02109660916193
C           0.57771398144031    1.03184015368011   -0.02429871300731
C          -0.78233524078421    1.12107812815362    0.00292603479547
O          -1.34251432293946   -0.09740347719744    0.02269892059637
C          -0.33378646970213   -1.00120073116716    0.00812648890432
C          -0.64225650667179   -2.39541152242395    0.02277667887351
S           0.61185890866867   -3.58680817907454    0.00386993147258
C          -0.57204123469570   -4.87409268574604    0.03334955302589
C          -1.86041964365275   -4.36320249088371    0.05685097589682
C          -1.89723603511753   -2.97432617839017    0.05084361367707
N          -0.09395232059782   -6.12927546897867    0.02781518425688
N          -0.95385596407232   -7.08640419533382    0.04736431339935
C          -0.41828174037052   -8.33875914880641    0.03848360364216
C           0.94667740891752   -8.76067261024951    0.01075669826400
C           0.95045398828330  -10.12358827743904    0.01178090864192
C          -1.20155731265683   -9.48842755001055    0.05558532986174
N          -0.34701344513715  -10.52016845091762    0.03883371827857
F          -0.73517382677412  -11.83209054881071    0.04763423100121
H           1.84335101154045   -0.80542922571197   -0.03780208956523
H           1.27537950583628    1.84348462969878   -0.04418898607672
H          -1.44522029437731    1.96360575332436    0.01071334740767
H          -2.72070339373377   -5.00730044474350    0.07697033823817
H          -2.79800318846340   -2.38700566136980    0.06579945307701
H           1.79615821003547   -8.10955031837663   -0.00725149021075
H           1.75006698695152  -10.83587964647043   -0.00420305422471
H          -2.26372914958250   -9.61282923165293    0.07750161893595
