33
         -58.763301773300          0.000461952976
C           0.85691270185306   -0.37752876626471   -0.03585342650306
C           0.64196077547525    0.97548803198593   -0.03577189163283
C          -0.75853433888597    1.11201462121652   -0.00482967568975
N          -1.34998047841516   -0.06096097067466    0.01262169043784
N          -0.36638902580055   -0.96752254593921   -0.00630882309381
C          -0.64852505402705   -2.31311256364707    0.00523461566820
S           0.61316336521916   -3.49635908659817   -0.02095308171910
C          -0.57574751169423   -4.78469608130108    0.01358154565235
C          -1.85977555992801   -4.27196209384157    0.04252215957209
C          -1.90163972169742   -2.87873428045794    0.03779242093912
N          -0.08669808660320   -6.03505026909862    0.00898679867066
N          -0.93569847989978   -7.00361825678856    0.03687861274079
C          -0.38758191732047   -8.24577268096654    0.03347143912395
C           0.98731243857135   -8.65327381180705    0.00010949826825
C           0.99805051792534  -10.00798131146707    0.01508561046896
C          -1.14254988777417   -9.40698621407600    0.06704987296011
N          -0.30151155430266  -10.47038582994063    0.05629363979482
C          -0.67857981538809  -11.79623236323537    0.08524563396342
C           0.11937627018802  -12.90609636781068    0.07713265696551
C          -0.62262798415208  -14.10555656201057    0.11686688997232
C          -1.96207285877449  -13.90017174546786    0.15435319404796
S          -2.36344974460003  -12.22683222764800    0.14228096577633
H           1.75597536771501   -0.95915455822570   -0.05387201591920
H           1.37389877024265    1.75584666840320   -0.05490783925738
H          -1.34169705045705    2.01096115754640    0.00509213968935
H          -2.71953829960841   -4.91631049720471    0.06619694669465
H          -2.79496357898639   -2.28243989133916    0.05717856805117
H           1.82913083683733   -7.99259995502544   -0.03065261657517
H           1.82525755878200  -10.68825519987782    0.00000585617681
H          -2.20718333032544   -9.52371501074174    0.09794895694498
H           1.19240964463714  -12.87923666569490    0.04431109843331
H          -0.16951895392802  -15.08030800702768    0.11742555825052
H          -2.75015501487765  -14.62484666497346    0.18868300112678
