19
         -32.638259109119          0.000644176977
H           0.89436564611837   -0.19736893972498    0.04055608610226
C           1.96575180553139   -0.15461631948209    0.03290858088637
S           2.74749601593126    1.37011225512236    0.03694181652083
C           4.31259710886809    0.59548282815166    0.02055528281591
C           4.18225473548748   -0.77905885641794    0.01265959233417
C           2.84650410529585   -1.19745648986253    0.01981683073444
N           5.39122161701405    1.40827274875443    0.01972276249127
N           6.54212891672401    0.83921963574872    0.00736743820895
C           7.61105112965476    1.68192504573478    0.00905231722529
C           7.66880546451559    3.11089157039067    0.02185242339199
C           8.98450870355242    3.45146677359596    0.01891964945079
C           8.92400678370649    1.23010012547445   -0.00121165942114
N           9.73462980190683    2.30712298660851    0.00498382978286
H          10.74113564491692    2.27659460222052    0.00035409126440
H           5.03749636701870   -1.42982274084623    0.00232430712225
H           2.54062675977866   -2.22897091748634    0.01558828685062
H           6.82110015343733    3.76450616579234    0.03165154914948
H           9.45193765757274    4.41680040813422    0.02569590155507
H           9.29768158296905    0.22620911809147   -0.01203908646581
