24
         -39.246404415646          0.000877245447
N           0.95642948907100   -0.05309705634048   -0.22090249380182
C           2.31897076197785    0.05989290470409   -0.11606090959494
S           3.07804470524194    1.61784300926497   -0.09106451089838
C           4.67243793714940    0.87089778373641   -0.05904933298099
C           4.55958957333926   -0.50447007071524   -0.06350501998662
C           3.24019548084161   -0.96114908083279   -0.09491749301785
N           5.71965697008948    1.70784433460505   -0.04215356305707
N           6.89720098861445    1.18335086518739   -0.01815697870886
C           7.92573862949645    2.07508367179684   -0.00790566020184
C           7.92269967496977    3.50348338338988   -0.00997101534508
C           9.22463872673780    3.89728713879902    0.00027091395534
C           9.25895073284653    1.68562495850332    0.00406351238526
N          10.03036929487408    2.79139648862054    0.00794419594865
C          11.46422586434554    2.82494467399566    0.01765509769766
H           0.42194939726183    0.76190987686323    0.03281948825259
H           0.56275820780703   -0.93079139832404    0.07985122352897
H           5.42904981214124   -1.13633658423500   -0.04332950500877
H           2.96001537717550   -1.99982949792780   -0.10544127336438
H           7.05045424869205    4.12456275977831   -0.01764022985060
H           9.65115735189961    4.88220064449823    0.00239697844483
H           9.67553625205256    0.69816866210913    0.00761565925777
H          11.85188305018446    1.80779924332529    0.01451125105841
H          11.83058761474364    3.33999778442304    0.90931935932967
H          11.84167985844694    3.34964550477494   -0.86364969404197
