23
         -44.035560724541          0.000827529964
C           1.82270163797101   -1.37419168429747    0.38736077404488
O           2.23173578885734   -0.11690755584478   -0.10835651542244
C           2.90774035701657   -0.11187110900505   -1.27046194942023
S           3.39814896953047    1.42852833758854   -1.88138827185540
C           4.14342559051640    0.65259639736624   -3.27492890901200
C           3.98738849463702   -0.71654119486888   -3.21367661087630
C           3.28830077590988   -1.15124836962043   -2.08343601923676
N           4.72287773186109    1.46154870587361   -4.17713026507934
N           5.29263367223770    0.90667221350359   -5.18741712003419
C           5.84649925501036    1.77379296296362   -6.08362680020615
C           5.87053726333939    3.20153768400920   -6.09753329608291
C           6.54398539174943    3.58571322435365   -7.21903375093790
C           6.52033282869392    1.34207743072633   -7.22038774376234
N           6.91666328889573    2.45083429425930   -7.86169503331641
F           7.61757501262742    2.44377520158155   -9.03715503464073
H           1.31348710218977   -1.16871995238256    1.32650787998408
H           2.68231320067138   -2.02622583477688    0.56924346803108
H           1.13365571612591   -1.86573458245080   -0.30654396619603
H           4.37480068933269   -1.36373570339897   -3.97931985748829
H           3.07586089120793   -2.18503316420083   -1.87995625104363
H           5.43274320021535    3.83621051861196   -5.35509462067372
H           6.78700515081687    4.55219058616107   -7.61129204461153
H           6.72734799058596    0.35635159384840   -7.58002806216300
