33
         -59.242827573674          0.000277372407
C           0.85172196017333   -0.40866283311393   -0.03995246386863
C           0.64168927626156    0.94501651842551   -0.04025227643713
C          -0.75829794563288    1.08682484852761   -0.00649486421543
N          -1.35419518161483   -0.08378099255046    0.01270066592414
N          -0.37391872048068   -0.99419747969713   -0.00761924470991
C          -0.66134791193273   -2.33841465473273    0.00559177277725
S           0.59503402359655   -3.52676135120009   -0.02061261604423
C          -0.59932951116070   -4.81031114992405    0.01658837318476
C          -1.88127811665181   -4.29176436081524    0.04640240379627
C          -1.91711568748738   -2.89847207360001    0.04020434573999
N          -0.11298771677364   -6.06092119273274    0.01210760034704
N          -0.95983738687440   -7.03132623676319    0.04067437423357
C          -0.40555997538012   -8.27180967439156    0.03600949884913
C           0.96813376369096   -8.67634143934553    0.00359466218832
C           0.98082467468276  -10.03187229471221    0.01523122615815
C          -1.16018779552696   -9.43474624907426    0.06596681625677
N          -0.31600502966484  -10.49658806821554    0.05337463271696
C          -0.66051785430060  -11.83266489778748    0.07539166359045
C           0.11251613422711  -12.97071423561396    0.06349579883618
N          -0.68387025002164  -14.06689093778148    0.09696198289360
C          -1.90763270949070  -13.62948446645750    0.12850734200502
N          -1.95901699176458  -12.27149059253596    0.11733727318094
H          -2.78242694750042  -11.69359222353836    0.13608947703217
H           1.74871963991266   -0.99346139781472   -0.05951961508553
H           1.37640388014816    1.72268865626161   -0.06129845398409
H          -1.33796236468048    1.98804045041665    0.00409784931122
H          -2.74462256503508   -4.93128498647916    0.07170560659171
H          -2.80767242086592   -2.29806139553459    0.05990996573226
H           1.80827281964626   -8.01373827236875   -0.02426797949063
H           1.80327161568043  -10.71771042696162   -0.00010766748608
H          -2.22676214984023   -9.53009128016258    0.09455159135707
H           1.17760305536419  -13.06819434203015    0.03328423894395
H          -2.78176561070337  -14.24699096769635    0.15975601967472
