30
         -52.700311018823          0.000171552421
C           1.36016284295130   -0.63709260524683   -0.84763144127437
O           2.17584830033960   -0.03521775250547    0.13441061443465
C           2.82199674272962   -0.86165428829145    0.97752894571882
S           3.79359999337788   -0.12137919606366    2.20109238115961
C           4.24159519427424   -1.70602743002878    2.82255847013896
C           3.64647423119131   -2.70673197982373    2.08356312704392
C           2.84397335890382   -2.23239170631265    1.04017542534341
N           5.06604627664199   -1.72712005779916    3.88309678380471
N           5.37478335644238   -2.88060734923528    4.36482419714251
C           6.21102940375900   -2.85187343598287    5.43719930152218
C           6.82165134148373   -1.74324243720375    6.11099556670707
C           7.56234421409844   -2.25500576371010    7.12402027641325
C           6.62969551305289   -3.99360724803824    6.09742628770183
N           7.44640996424428   -3.62973892673497    7.11937070498492
C           8.05549540642935   -4.48953409762961    8.00726760824578
C           8.85613636723227   -4.18521163610685    9.07248864014142
C           9.30147718214614   -5.33398596357120    9.76061826978084
C           8.84135710234409   -6.48847795556535    9.21986839476115
S           7.84422574922935   -6.20920114194530    7.84464901636245
H           0.92546285425545    0.18381536595793   -1.41400734705313
H           0.56371173067447   -1.23062209611641   -0.38908072953945
H           1.94909426383886   -1.27327546038689   -1.51488986980697
H           3.80407793070841   -3.74524423624187    2.31125172929135
H           2.30714153848237   -2.87594418500487    0.36700039056761
H           6.70036856667834   -0.71345178556493    5.84448896003621
H           8.16817958549586   -1.75537207748165    7.85256724326168
H           6.39118697925173   -5.01924060846913    5.89930814379185
H           9.12061457806971   -3.18572678259298    9.36274189441595
H           9.93931566250789   -5.29405906662630   10.62497482542521
H           9.02039376916535   -7.49568809567833    9.53748218947667
