33
         -58.782470181964          0.000594858062
C          -1.16594123008673    0.14825205263806    0.01208129367074
N          -0.41428647990673    1.26894716636315   -0.01554667429042
C           0.82869798223163    0.87029232679049   -0.05679635667948
N           0.92460081701189   -0.47760229930466   -0.05773898282740
H           1.75946454066788   -1.04031568581991   -0.08490865606210
C          -0.35560154028290   -0.97405675188466   -0.01347290722868
C          -0.66250869360696   -2.36520928040265    0.00070308080036
S           0.59225944339528   -3.56728241215770   -0.03814174084962
C          -0.58887462201831   -4.85511697307680    0.00900512188904
C          -1.87389696344051   -4.34042262869564    0.05083832719570
C          -1.91278235186906   -2.95046446242934    0.04611392780355
N          -0.10075842575939   -6.10483675920734    0.00137102127062
N          -0.95240289306761   -7.07215762242061    0.03985381449981
C          -0.40677783187112   -8.31533733648759    0.03459754242524
C           0.96706429587899   -8.72519256965820   -0.00988732080375
C           0.97595772167638  -10.07986404063561    0.00923399071084
C          -1.16318927073209   -9.47515736268431    0.07855466041260
N          -0.32362146331284  -10.54016811713513    0.06355340552235
C          -0.70204039538239  -11.86531766736507    0.09990950935561
C           0.09483770689318  -12.97601358512105    0.09073290505160
C          -0.64799052620261  -14.17458008830579    0.13957200555343
C          -1.98694350595108  -13.96788374054707    0.18488667097734
S          -2.38678083225544  -12.29409420033593    0.16927461680242
H          -2.23463604797835    0.20120186865006    0.04826492266320
H           1.67853369500051    1.52214630149085   -0.08662075814473
H          -2.73353419904805   -4.98489053110971    0.08358535890865
H          -2.81876727174352   -2.37261730505123    0.07515104308025
H           1.81003655652248   -8.06644297464736   -0.05029138735316
H           1.80208985636511  -10.76128642380306   -0.01126229377752
H          -2.22762294283836   -9.59051715524892    0.11944360048623
H           1.16765585265372  -12.95045473185593    0.05115567013061
H          -0.19583938900437  -15.14979084163945    0.14080466425854
H          -2.77533159193857  -14.69178616890195    0.22693992454816
