29
         -49.105017895374          0.000833887599
C           0.85631066093834   -0.41094147199424   -0.03213101541150
C           0.64778538705763    0.94361688686620   -0.03328469162093
C          -0.75144144116304    1.08635628781210   -0.00222581029996
N          -1.34832584318702   -0.08458075091061    0.01521606020826
N          -0.36898204095349   -0.99487591183025   -0.00253893821788
C          -0.65502815902264   -2.34057125252912    0.01025052742160
S           0.60682760812731   -3.52526996185335   -0.01124179306796
C          -0.58193084812211   -4.81281327355060    0.02193029171500
C          -1.86483420270002   -4.30048523556330    0.04741548760704
C          -1.90690636308589   -2.90577986454696    0.04081609399323
N          -0.08860514655502   -6.06334588644497    0.01943946873152
N          -0.93521668391591   -7.03369737148795    0.04259970332009
C          -0.38772109555857   -8.27580382146575    0.04076232285343
C           0.97998390800764   -8.69095336486176    0.01800348082540
C           0.97410664245913  -10.04999934197712    0.02780536010247
C          -1.15134468088319   -9.43897425120050    0.06343764969028
N          -0.32052035839014  -10.49634227350012    0.05527546984611
C          -0.70375982802414  -11.87863455060177    0.07278527172081
H           1.75292153952120   -0.99639879202064   -0.04967625058732
H           1.38392579852444    1.72003844127095   -0.05289312195604
H          -1.33079897388959    1.98779413748199    0.00696932354652
H          -2.72567737043693   -4.94339909869901    0.07004280441498
H          -2.80117722625145   -2.31073273515237    0.05747744953791
H           1.82832682887061   -8.03831190753521   -0.00261558394132
H           1.79003265444146  -10.74670719239876    0.01744610444477
H          -2.21732797016695   -9.54665433695975    0.08425669102071
H          -1.78918491897410  -11.95592341242306    0.08938880502331
H          -0.29972513995700  -12.37655110397503    0.95747684076672
H          -0.32569273671030  -12.39154858994909   -0.81474800168724
