22
         -35.810715701402          0.000920224028
H           0.87474756529838   -0.00672391442837   -0.05813000630226
C           1.94609700624953    0.03722846376926   -0.05751053374740
S           2.72618162549255    1.56384891361236   -0.06215685257443
C           4.29292345825309    0.79155212164154   -0.05824541142847
C           4.16422133069941   -0.58296920043816   -0.05362173515498
C           2.82874850754940   -1.00361150860215   -0.05315349372878
N           5.37012263062365    1.60577787766755   -0.05785208813756
N           6.52205852985484    1.03507882049476   -0.05565870971415
C           7.59115628134943    1.87255829641079   -0.05232528664891
C           7.66094113455587    3.30040571046615   -0.05212998308074
C           8.98085354702701    3.62552783924949   -0.04594815471823
C           8.90464871841007    1.41490179152904   -0.04629118660391
N           9.72888783320593    2.47795505175575   -0.04233741784345
C          11.16299949994071    2.44032549389205   -0.03394391696888
H           5.02073395901644   -1.23218143089317   -0.05053164730697
H           2.52477321030846   -2.03583640399994   -0.04966117187325
H           6.82045029534536    3.96371756817904   -0.05624990921846
H           9.45819209744110    4.58663139437778   -0.04370791940870
H           9.26823140862252    0.40658056203573   -0.04438649007993
H          11.50049309995909    1.40552469835758   -0.03363362827015
H          11.55349475433921    2.94021329247182    0.85577269284936
H          11.56405350645797    2.94322456245111   -0.91718715003974
