24
         -44.395421270445          0.000428632587
C           1.00669465734072    0.00159317749795   -0.23391093430193
O           2.38298481427907    0.10265267050413    0.06826796776084
C           3.05807839317246   -1.04485014905809    0.23574357982692
S           4.73475083988503   -0.91067272189133    0.62885858891852
C           4.87512822947216   -2.66434957579218    0.68196633947124
C           3.66188337644328   -3.26207830222639    0.40092665756356
C           2.63466928534286   -2.35034453568075    0.14884770823555
N           6.08339964427456   -3.16267834268149    0.98044070290757
N           6.20399740991811   -4.44221156237369    1.03304926835679
C           7.45587867700715   -4.88290462402469    1.35029472686906
C           8.65472436633993   -4.13916007226793    1.63342814695261
C           9.63182678472776   -5.03530422782794    1.89757830483784
C           7.77443705043329   -6.21866650035478    1.45916298887055
N           9.10014960876502   -6.31086448666560    1.79287766359863
C           9.77009441694478   -7.43434684174457    1.98805789519992
N          10.35489045033472   -8.40431852630158    2.15971341460052
H           0.64744286085421    1.02517132227448   -0.31620174621465
H           0.46536636195507   -0.51591475067012    0.56324548574801
H           0.84838215190672   -0.52160740550014   -1.18129483883427
H           3.55015703491086   -4.33100794030321    0.38585502237157
H           1.62734308250483   -2.64235068070921   -0.08623136451657
H           8.73104729614551   -3.07127494982019    1.62891852493639
H          10.66478749661745   -4.90032241318751    2.15323575848153
H           7.16460571042439   -7.08927856119521    1.32622013835971
