27
         -50.457366654146          0.000494467383
C           0.86010711878643   -0.41546050746039   -0.03376806172185
C           0.63362323514270    0.93455420823383   -0.03453652762268
C          -0.76939709681347    1.05997074068635   -0.00477712132841
N          -1.35099779604031   -0.11635557627737    0.01281976577777
N          -0.35964855810290   -1.01626401187483   -0.00486127296937
C          -0.63641479979921   -2.36092504343273    0.00823488105155
S           0.62216542624512   -3.54405141034672   -0.01123085592372
C          -0.56975741840370   -4.82996780197345    0.02226131037815
C          -1.85476563108974   -4.31451034230840    0.04613725036032
C          -1.89348598869202   -2.92359845327159    0.03828467316097
N          -0.09165091724488   -6.08307985744573    0.02080600399426
N          -0.94831087891733   -7.04220925237649    0.04556995355646
C          -0.40921963931147   -8.29330362756454    0.04341922049860
C           0.96750439393610   -8.71109499618078    0.01888916000901
C           0.97751255284455  -10.06274523888462    0.02794750420728
C          -1.17848514012128   -9.43747915527005    0.06662621699483
N          -0.33312579335615  -10.51318350242015    0.05705444161630
C          -0.69764223934762  -11.78542907268760    0.07225667693291
N          -1.00153220917579  -12.88947180293285    0.08281816522796
H           1.76404421907692   -0.98952540153014   -0.05098856447282
H           1.35793520384523    1.72179228802018   -0.05340880920206
H          -1.35930708643798    1.95441465769380    0.00430364838461
H          -2.71533137474160   -4.95792549384853    0.06848654783326
H          -2.78426427623281   -2.32360448583884    0.05349091183770
H           1.81090740489530   -8.05198402823499   -0.00233314263831
H           1.78887162539571  -10.76409723306751    0.01661208980295
H          -2.24309433633980   -9.55432559940603    0.08864593425427
