28
         -49.384659186898          0.000905527500
N           0.90301904107111   -0.17597776748159   -0.26784518030740
C           2.26149172356809   -0.06538032290026   -0.15448707812068
S           3.02532162344809    1.48919454241758   -0.13822633665081
C           4.61703328738206    0.73580500941752   -0.08675691024348
C           4.49858038339926   -0.64078719292798   -0.07935740196001
C           3.17967196742697   -1.09156519115108   -0.11672101962758
N           5.66655658887425    1.56564571982660   -0.06952924414022
N           6.84305826003990    1.03830500660274   -0.03287248539751
C           7.86999719131490    1.93286645615200   -0.02227218599898
C           7.85237553967584    3.36438943326949   -0.03676436901949
C           9.14550193685409    3.77567586569703   -0.01807774826795
C           9.20027408189316    1.55342011874696    0.00492565475001
N           9.97092070147418    2.67351818351134    0.00680089229587
C          11.35029674934347    2.68246301463215    0.02997626163008
C          12.26643114809190    1.65673415693216    0.04928824514919
N          13.52432757858036    2.16336770504734    0.06907636689300
C          13.39754394322845    3.45680301914792    0.06233369705945
N          12.09186300634681    3.83598748800750    0.03864121038759
H          11.73330122364275    4.77590825773309    0.02909532758955
H           0.36056514541414    0.64079836620556   -0.04110034032429
H           0.49930427975223   -1.05531801414905    0.01305836110385
H           5.36605347674357   -1.27477631010356   -0.04670779888684
H           2.89443245224592   -2.12870897084810   -0.11992408481119
H           6.97364831874080    3.97575437600308   -0.05797300732431
H           9.53887312207973    4.77400845922259   -0.02144589747722
H           9.62592931511157    0.57211558116007    0.02095341054024
H          12.09957598491825    0.59998239366570    0.04970439580613
H          14.20780192933817    4.15675061616316    0.07375726535294
