32
         -60.214674939806          0.000373762172
C           0.89262126935361   -0.38453093678346   -0.05454492566112
C           0.61953210251035    0.99785095378191   -0.04908914337682
C          -0.73829697108661    1.11236951727581   -0.00278840644724
O          -1.32104072894328   -0.09528173380752    0.02061105107630
C          -0.32963932397957   -1.01784724838855   -0.01078491543767
C          -0.66048614457732   -2.40666131904064    0.00519824274001
S           0.57576275810658   -3.61561866793157   -0.03218859745400
C          -0.62638310293796   -4.88595492954400    0.01472140077836
C          -1.90730595017122   -4.35600832786824    0.05600455219658
C          -1.92384547961718   -2.96732782040217    0.05057421930721
N          -0.16506904402815   -6.14614950213535    0.00649804678805
N          -1.03453713534417   -7.09480389074096    0.04311393636773
C          -0.50644175305061   -8.34995562135484    0.03479158556925
C           0.84588153564781   -8.80235229511099   -0.01076835028516
N           0.90255531068476  -10.10816748104818    0.00030017134424
C          -1.25419101450206   -9.52084796567352    0.07412676484359
N          -0.37084606697506  -10.54082068332746    0.05201308763468
C          -0.63899705657361  -11.89251461700369    0.07804910239069
C           0.21371201819913  -12.96074558582185    0.05754950590238
C          -0.61952780465564  -14.10408074787159    0.10443031853085
C          -1.89829647629451  -13.64500190276682    0.14917971496111
O          -1.92218546716164  -12.29530001147236    0.13354849599052
H           1.84978986983050   -0.86294757963244   -0.08601165942184
H           1.33199499329032    1.79634035153484   -0.07577183195630
H          -1.38448297281809    1.96752044011871    0.01704550770964
H          -2.77626481094478   -4.98795507728141    0.08850738608432
H          -2.81570001990552   -2.36701669827941    0.07857302823985
H           1.73462401667321   -8.20655545492082   -0.04988523308775
H          -2.31111639873819   -9.68106251249840    0.11499558247823
H           1.28069603480793  -12.91587528017934    0.01500440977020
H          -0.30311350264476  -15.12635960273343    0.10459966531569
H          -2.84402268415439  -14.14599776909225    0.19265728710843
