25
         -46.210867591123          0.000469928940
C          -1.16305672949889    0.11908370964139    0.02225886397031
N          -0.40038026624964    1.23179796275466    0.00221747816632
C           0.83931501365641    0.82106998040478   -0.02709303122217
N           0.92227064571686   -0.52718636673710   -0.02690656556792
H           1.75217896689413   -1.09764180466728   -0.04601982321275
C          -0.36314824125486   -1.01129927554879    0.00480591356843
C          -0.68243095043358   -2.39942657192555    0.01551460229718
S           0.56223255396492   -3.61035186185152   -0.00896568422770
C          -0.62985405768393   -4.88782742834502    0.02252959131355
C          -1.91172426345726   -4.36329339080960    0.04972520433532
C          -1.93918130863725   -2.97360317790923    0.04579940212932
N          -0.14993670137622   -6.14083066205128    0.01742363099844
N          -1.00276984084761   -7.10304123893058    0.04103375286640
C          -0.45409490524788   -8.35140852859020    0.03579031607410
C           0.90092092817927   -8.78845377363590    0.00741604460853
N           0.96644160830267  -10.09685719604874    0.01430824631665
C          -1.19078316860117   -9.53263994457462    0.05992526229245
N          -0.29715933190560  -10.53293729345472    0.04572177036782
H          -0.47853301074070  -11.52466363755901    0.05617010868453
H          -2.23148911226724    0.18261092742666    0.04803151858459
H           1.69552191678887    1.46482933842021   -0.04872386859099
H          -2.77752332485220   -5.00009313397688    0.07153333638524
H          -2.84051016528070   -2.38822519054029    0.06434054167560
H           1.78473776925190   -8.18489582472840   -0.01666203948503
H          -2.24830402442035   -9.69401561676294    0.08520542767176
