25
         -46.191600011876          0.000450274618
C           0.85887697147639   -0.42074837070997   -0.03279750407895
C           0.65267963239424    0.93303981215569   -0.03481914138951
C          -0.74771049343338    1.07892222141486   -0.00587858778248
N          -1.34678461484233   -0.08946808230180    0.01216561709332
N          -0.36892598010809   -1.00299427712220   -0.00416051060411
C          -0.66050402702052   -2.34559635948190    0.00893040047313
S           0.59071563471291   -3.53814346621461   -0.01093391248445
C          -0.60923930008654   -4.81552220964563    0.02156027290415
C          -1.88973039294593   -4.29262032945089    0.04563551170887
C          -1.91982185219201   -2.89982332480876    0.03857914798463
N          -0.13048020610480   -6.07006476886149    0.01996345528622
N          -0.98297344061507   -7.03116970047829    0.04259532917838
C          -0.43591876575584   -8.28022580373832    0.04118104992917
C           0.91870518890635   -8.71963928025054    0.01923807065120
N           0.98169126241833  -10.02800411495459    0.02770679291265
C          -1.17469380795526   -9.46032500702128    0.06354760053199
N          -0.28283973465709  -10.46192500574926    0.05434044452518
H          -0.46581963135944  -11.45339845309120    0.06506774535777
H           1.75418096477390   -1.00821270612392   -0.04894876209444
H           1.38940978915825    1.70875493991241   -0.05397470735923
H          -1.32457828010890    1.98189298560488    0.00210737201091
H          -2.75551417906511   -4.92908429987112    0.06760280525827
H          -2.80775244146488   -2.29549793924934    0.05408348807873
H           1.80332182315739   -8.11720214254269   -0.00161499581433
H          -2.23263411928264   -9.61966431742001    0.08438301772290
