32
         -59.389239747549          0.000240689074
C           0.94632948327329   -0.49515872139621   -0.00863397346948
C           0.92053879432011    0.90947169024210   -0.00114772569997
C          -0.34322690620960    1.41202640683602    0.02839220384365
S          -1.53596242281293    0.17756654351890    0.04761206004474
C          -0.30665367628975   -1.05779114028970    0.01540843354498
C          -0.65252129407387   -2.43827056317308    0.01819219120151
S           0.57097829531221   -3.66692461069978   -0.00757695596880
C          -0.64492149979730   -4.92312646586370    0.01729978211788
C          -1.92070650826584   -4.37892836083765    0.04221982553362
C          -1.92091653026252   -2.99091865742542    0.04257749786657
N          -0.19205084869634   -6.18514436494043    0.01083209352165
N          -1.06419733242952   -7.13204954211595    0.03737857999968
C          -0.53455569971040   -8.38671514346686    0.03180283294764
C           0.82002902880780   -8.83331642641892   -0.00316306677060
N           0.88228776681379  -10.13880805731439    0.00801299190535
C          -1.27771792308783   -9.56064337019089    0.06469646616527
N          -0.38968007680630  -10.57681190619864    0.04943960168570
C          -0.65114995014351  -11.92986732535227    0.07375931515037
C           0.20783112828003  -12.99324687449641    0.06231955062743
C          -0.61916919779556  -14.14128153493618    0.10213174877428
C          -1.90093874933427  -13.68955802096979    0.13430012557553
O          -1.93247097118144  -12.34002529425196    0.11730384372853
H           1.84477113300810   -1.08537506015677   -0.03066896043513
H           1.80338513255683    1.52292402961973   -0.01685301256777
H          -0.65183623830015    2.43830756746850    0.04027925386050
H          -2.79755830786101   -5.00045587619392    0.05939210538822
H          -2.80941924491783   -2.38367759896810    0.06059788831546
H           1.70632946304608   -8.23344565988004   -0.03503826465054
H          -2.33419653851832   -9.72574260838086    0.09722952464500
H           1.27491144253879  -12.94238835934170    0.03001113258188
H          -0.29682874218954  -15.16170798951895    0.10620316291612
H          -2.84413300927290  -14.19596670490670    0.16914974762069
