23
         -44.651245098296          0.000825052815
C           2.78601455727857   -1.44640056305666   -0.36736205693395
O           2.39141712081308   -0.12788177479204   -0.04486385008895
C           2.97449623209632    0.87095892213512   -0.71981526610766
S           2.47243933978983    2.47418768392219   -0.32351168086682
C           3.58386575353067    3.13037357147520   -1.52155892213317
C           4.27605679445535    2.11563798723737   -2.15742742225738
C           3.93436077269876    0.84070002468597   -1.70718962003898
N           3.60487683705421    4.46182236575951   -1.64934468492545
N           4.40088410615467    4.97168164259422   -2.52111767062997
C           4.36750226306199    6.33431801591590   -2.59384373438627
C           5.15225401502268    7.10038120181556   -3.50713254112731
N           4.93372081659098    8.37690760192927   -3.36989507969941
C           3.64624019167089    7.28065084188456   -1.88342862948386
N           4.01767996746584    8.49410969144261   -2.38185892986694
C           3.55679041144342    9.67069992589274   -1.97246734330322
N           3.14148758456647   10.66912563780522   -1.59844121003047
H           2.19605239658046   -2.09465049681473    0.27678075909342
H           3.85052909636516   -1.59870536119786   -0.16835191526189
H           2.57373337056540   -1.67571577378026   -1.41532501099966
H           5.00267586557073    2.32088003731086   -2.92263952063173
H           4.37382012477197   -0.06194017221689   -2.09091030636343
H           5.84762736216684    6.73803923479927   -4.23637945798789
H           2.93010502028574    7.17818975525283   -1.09406590596892
