25
         -50.378400379082          0.000876038371
C          -1.15842369117132    0.12101665114907    0.02425576602169
N          -0.39562271322571    1.23237634804466    0.00605060296017
C           0.84450680956244    0.82110857242078   -0.02458110439535
N           0.92709259144701   -0.52658727320060   -0.02720371485215
H           1.75742876985116   -1.09658360020544   -0.04782252177824
C          -0.35867172439204   -1.01070293155996    0.00413092481483
C          -0.68088067677966   -2.39716777466374    0.01284837192777
S           0.55766437011595   -3.61214687546523   -0.01430033145169
C          -0.64082308003505   -4.88528963130038    0.01773550090743
C          -1.92175629287877   -4.35361203489038    0.04658059887883
C          -1.94230663321489   -2.96578292248765    0.04385259493349
N          -0.16842093592015   -6.13796955122074    0.01237516989356
N          -1.02113192578912   -7.10003251588931    0.03779617067882
C          -0.46456246096184   -8.34768506745783    0.03331947852719
C           0.89123385460201   -8.77119752029400    0.00556124331358
N           0.96970281866003  -10.08488960807164    0.01399257661607
C          -1.20037868151269   -9.53343000195015    0.05933614217837
N          -0.27445169224545  -10.49292222278804    0.04561410702024
F          -0.53872652408711  -11.82619951969738    0.06239054039522
H          -2.22688303846770    0.18464492985542    0.05064584337797
H           1.70019126870301    1.46557796271654   -0.04520085121933
H          -2.78958858875500   -4.98767895240505    0.06881076041277
H          -2.83987662157289   -2.37492685427009    0.06392388392295
H           1.77347725965120   -8.16575810604981   -0.01934510991438
H          -2.25122246158338   -9.72639150031918    0.08496335683022
