32
         -59.871230981426          0.000497846185
C           0.90031349311255   -0.35851250197095   -0.03954235286757
C           0.61419233507520    1.02124149927482   -0.03425247696503
C          -0.74498252864336    1.12303803283195    0.00324129635641
O          -1.31632888971536   -0.08995307953952    0.02126255094513
C          -0.31626929688915   -1.00338227461196   -0.00464406504800
C          -0.63795420559666   -2.39434458865166    0.00755490209079
S           0.60246987218786   -3.59923215998829   -0.02603209059609
C          -0.59574166342456   -4.87297457562012    0.01307795197798
C          -1.87863132638645   -4.34735956945215    0.04934190683656
C          -1.89975995423424   -2.95892351480843    0.04617917524522
N          -0.13810062653147   -6.13541860568264    0.00549054637284
N          -1.01914946643051   -7.07327519957268    0.03547607982440
C          -0.51621439179806   -8.33810449249400    0.02914203869895
C           0.82161772938148   -8.82535477600127   -0.00641668704901
N           0.84011929807252  -10.13451638414648    0.00312961627556
C          -1.29793445439412   -9.48895374527365    0.06076579572570
N          -0.44714129430197  -10.53189373745404    0.04400235223374
C          -0.74051466227273  -11.87951942138267    0.06410291217590
C          -1.91577622318603  -12.59076060667696    0.10733465037840
N          -1.63604229750497  -13.91667354293350    0.10953334397732
C          -0.33749507421040  -14.02054930501470    0.06906850364751
N           0.26326618068441  -12.80695473604307    0.03993830910733
H           1.24152936707182  -12.56674706502091    0.00719799644018
H           1.86223541872936   -0.82772628899540   -0.06519088543454
H           1.31916265224006    1.82653052808241   -0.05525354513727
H          -1.39930810418339    1.97210428064789    0.01975411710182
H          -2.74523471161642   -4.98282835705222    0.07683554845289
H          -2.79344309083580   -2.36126843017723    0.07115024132102
H           1.72818197801825   -8.25622800956480   -0.03745973368733
H          -2.35968481476050   -9.61137015855079    0.09285605074208
H          -2.92526305391294  -12.23682481762165    0.13660876061868
H           0.20126180625555  -14.94582439653537    0.05965719023844
