26
         -50.712150917437          0.000810305747
C           0.88071657335541   -0.44785358228356   -0.03109933406999
C           0.67639689508541    0.90484138934865   -0.03206990829476
C          -0.72536777643476    1.05371429332544   -0.00321804570044
N          -1.32658049256827   -0.11198577386720    0.01391926346918
N          -0.35012619782609   -1.02899296986767   -0.00302024489505
C          -0.64638793921142   -2.36790950270499    0.00898038886972
S           0.59458098130246   -3.56770699754372   -0.01172635212311
C          -0.61639676762470   -4.83665244269658    0.02003252120224
C          -1.89558195260358   -4.30217331029226    0.04444056771775
C          -1.91352390505248   -2.91253906146061    0.03835372635127
N          -0.15395583850242   -6.09260173922563    0.01923370628410
N          -1.01433117798346   -7.04776363412444    0.04121242896491
C          -0.46812733288619   -8.29889166833103    0.04242349048798
C           0.89819635750715   -8.73181015310611    0.02326830270213
N           0.98212726606807  -10.02954908076259    0.03439520122199
C          -1.19858663004165   -9.47146578874622    0.06606922077603
N          -0.29125542972433  -10.48910551950422    0.06053493827541
C          -0.58033280553798  -11.78563991796272    0.07923318979202
N          -0.85969228087490  -12.89498205070901    0.09573589782685
H           1.77456516446818   -1.03745800648144   -0.04753775243058
H           1.41333698085427    1.68028909876227   -0.05052017639132
H          -1.29964064530036    1.95828674995738    0.00538245175298
H          -2.76520460606842   -4.93356066685177    0.06611596447861
H          -2.79429985774066   -2.29786554823447    0.05431655086043
H           1.77628184579912   -8.11901513013446    0.00232911695066
H          -2.25432042845816   -9.64743898650305    0.08572488592122
