27
         -49.650583202920          0.000958528015
N           0.83448482928704    0.03969735949288   -0.21188152604627
C           2.19308983140141    0.11419123828314   -0.10578988163727
S           2.99944368336192    1.64642710860905   -0.08892541685865
C           4.56925025192096    0.84821035952115   -0.04270696556318
C           4.41219034334417   -0.52622389452729   -0.03856650469351
C           3.08323607288732   -0.93917892723044   -0.07349089730664
N           5.64485612972107    1.64179396366394   -0.02443267447452
N           6.80054634887997    1.07279261349809    0.01409891968182
C           7.86055371972020    1.93192119568892    0.02708816656511
C           7.92414682230362    3.35352453527546    0.01679052691438
N           9.16798029789199    3.76578444825292    0.03631679162307
C           9.19065994687869    1.53113393204710    0.05464784163639
N           9.93278660102678    2.65712202355672    0.05841522059732
C          11.30608203181536    2.77731892031193    0.08012161253615
C          12.33415339744694    1.86596068721852    0.10059949436002
N          13.51839095198204    2.52605765151360    0.11643814986204
C          13.23194979989839    3.79725590890732    0.10602650069360
N          11.89412635179544    4.01118547904520    0.08384649124165
H          11.37654915255432    4.87578530031257    0.07083805955240
H           0.31172879040894    0.87222233926517    0.00135478640504
H           0.40617204036022   -0.83041694272971    0.06027146125433
H           5.26311612632939   -1.18255484183841   -0.01017622275115
H           2.76875873920512   -1.96773369636774   -0.07879292930091
H           7.10896803670000    4.04774231966508   -0.00282720642645
H           9.62691687002526    0.55510815396747    0.06975805657227
H          12.29519454524976    0.79650210963592    0.10452342085419
H          13.95488828760377    4.58706065496136    0.11390472470881
