22
         -40.129050967404          0.000294990888
C           2.72193082937603   -1.61825400389432    0.26522327512879
O           2.37880593375749   -0.26212670803900    0.07331471982770
C           2.95228898675498    0.63298255221338    0.89572624675130
S           2.51161173034333    2.28931282797367    0.67439258379085
C           3.57147441946418    2.76086121892851    1.99736096634463
C           4.20267159126675    1.65857166622780    2.53595037387637
C           3.85482029571918    0.45497377771244    1.91574636409486
N           3.61688004619847    4.06924132713050    2.29947865572312
N           4.38241914468105    4.42252196802566    3.26891771369474
C           4.38368875431931    5.76055876694480    3.54205589964411
C           3.68972207846609    6.85014079321724    2.94429789344271
N           3.99365835933543    7.97759845183404    3.53967520334207
C           5.13246542606371    6.35073023428272    4.55530599014506
N           4.86165391838145    7.66470878284792    4.50745101573764
H           5.22962150859728    8.39375903569075    5.09854196224560
H           2.15585895990236   -2.17406129657858   -0.47932480984682
H           2.44404496287142   -1.95711116477839    1.26756160992811
H           3.79254544565024   -1.78023194197880    0.11011105013633
H           4.89171543399463    1.74815940578549    3.35605364622297
H           4.25259063082771   -0.49929243804962    2.20987940334138
H           3.00458901227647    6.81776483785581    2.12240362636363
H           5.80552253175250    5.91916190664800    5.26657661006491
