27
         -49.993910678002          0.000537316057
N           1.01385927616159   -0.11637395775841   -0.22680909342873
C           2.37174140428092   -0.03395458433705   -0.11717437573141
S           3.16834356823525    1.50313648356393   -0.10346008246805
C           4.74345824647510    0.71482581793679   -0.05308306278504
C           4.59481503870546   -0.66036877538730   -0.04441131837735
C           3.26820448739299   -1.08167739779157   -0.07991816736620
N           5.81037474335063    1.51926214324190   -0.03703817793877
N           6.97470725736625    0.96764625616546    0.00295221211193
C           8.01922365119235    1.84529681223892    0.01309965928789
C           8.05639314798753    3.27032147257299   -0.00382183433625
N           9.28928439007748    3.70841539807217    0.01570086438859
C           9.35563196909464    1.47256723091232    0.04455819816510
N          10.07527023742755    2.61700710447352    0.04437272620683
C          11.44660036295174    2.74742496060349    0.06956502968791
C          12.22855785126564    3.86862116140529    0.07490659115355
C          13.56202330634641    3.39430123031728    0.10458350574594
C          13.48654800724006    2.03737587647661    0.11482211444341
O          12.19879694273385    1.63085317406605    0.09364709854019
H           0.48471794685370    0.71307944981592   -0.01710466106437
H           0.58791756334535   -0.98898946243490    0.04052076480493
H           5.44890868059782   -1.31239405483877   -0.01267416713297
H           2.95998768103554   -2.11214192212806   -0.08217607540387
H           7.22718895461134    3.94741241139507   -0.02834695118155
H           9.81868427623289    0.50853808067603    0.06488828219852
H          11.88250379694978    4.87963623780587    0.05945363351926
H          14.45209561985260    3.98851529881365    0.11664360674585
H          14.23568159223555    1.27211355412294    0.13572368021473
