28
         -49.730304294964          0.000611193577
C           0.88567559324398   -0.37213413576473   -0.02489334560570
C           0.61157623057811    1.01040933769435   -0.01996146701960
C          -0.74640388723381    1.12405834898808    0.01081664159320
O          -1.32868762457638   -0.08443814750734    0.02514720255249
C          -0.33627168677288   -1.00597172978922    0.00348378574315
C          -0.66627757599838   -2.39541254421199    0.01346943191655
S           0.57300226338351   -3.60240393444145   -0.01117341152738
C          -0.62668132592626   -4.87502565525159    0.02039942082835
C          -1.90818329657319   -4.34839770066688    0.04750112703451
C          -1.92788394351556   -2.95867714665242    0.04358840824803
N          -0.15868625178716   -6.13438330889743    0.01676503196480
N          -1.02313269002953   -7.08703626380381    0.04130332126839
C          -0.48995623586435   -8.34022148882991    0.03921352905636
C           0.85666741126180   -8.79589964656666    0.01298720491411
N           0.90056170878558  -10.10608362016091    0.02380009971189
C          -1.23940619472533   -9.51647495051229    0.06657233988755
N          -0.36712769620399  -10.53191720267711    0.05622510417460
C          -0.64650854537343  -11.93786619314815    0.07667205411607
H           1.84348115566387   -0.84974138033104   -0.04618427835826
H           1.32385016052352    1.80933917502094   -0.03681110511174
H          -1.39377595888679    1.97840433529837    0.02485058908357
H          -2.77709944145359   -4.98091133497297    0.06933937328782
H          -2.82175286063584   -2.36091967709767    0.06211600173068
H           1.75067483747461   -8.20745450179107   -0.01260706289979
H          -2.29978982495901   -9.66180286890028    0.09183881598116
H          -1.72248869828468  -12.09505976488320    0.09893473004687
H          -0.19049610293159  -12.39316592991813    0.95741119384817
H          -0.22415951918319  -12.41202207022542   -0.81080473646583
