27
         -49.167543607372          0.000524950774
N           0.93151337990555    0.03213142824171   -0.27868613108327
C           2.29006881928970    0.11633394948300   -0.17554971764543
S           3.08759780485092    1.65326752193036   -0.16755045469192
C           4.66195224875662    0.86387772690768   -0.11714827182603
C           4.51242386268512   -0.51122223461097   -0.10623864416472
C           3.18582216887083   -0.93196389682677   -0.13815027639143
N           5.73471902221650    1.66173161634791   -0.09915451645993
N           6.89045028044266    1.09234922947628   -0.05262835922870
C           7.95320631097352    1.94551393550479   -0.03418565034869
C           8.03259230072908    3.36895729495065   -0.04046589943540
N           9.27789109738937    3.76915268221905   -0.01108208497853
C           9.27860187592194    1.53515632173173    0.00154264521860
N          10.03264890708771    2.65508211717257    0.01341036178255
C          11.40636592205335    2.74614212528319    0.04359881498895
C          12.15395680383497    3.88814914792768    0.05777854368235
C          13.53808324021868    3.61700003032679    0.08659235004226
C          13.81954484401089    2.29006007444360    0.09388844033838
S          12.39606271470204    1.32042956502222    0.06564610662186
H           0.40377353010059    0.86477362413993   -0.07674017772470
H           0.50756356994566   -0.83543343232374    0.00881215260966
H           5.36703349388921   -1.16262282431540   -0.07530865453904
H           2.87702608518460   -1.96221467700588   -0.13734981623532
H           7.22462806894219    4.07158483211354   -0.06388824804415
H           9.70734624582146    0.55449933881679    0.01720149879812
H          11.71379000981106    4.86710933972153    0.04756176529316
H          14.29230535987520    4.38274949741119    0.10115710220152
H          14.77556203249047    1.80684566591081    0.11396712121989
