26
         -50.731628792689          0.000740058154
C          -1.15179197116125    0.08740908386716    0.02702619664027
N          -0.39026220658351    1.19877152596282    0.00961047524667
C           0.85058589337965    0.78884393141350   -0.02127916056361
N           0.93481748362150   -0.55851860643653   -0.02483878453512
H           1.76636229574432   -1.12680505381916   -0.04583967611026
C          -0.35056115820379   -1.04415950866188    0.00611665303415
C          -0.67340880150453   -2.42977132926115    0.01411111652877
S           0.56199886656637   -3.64678456750371   -0.01316667906700
C          -0.63986384738509   -4.91730044672004    0.01854911212819
C          -1.92079106223251   -4.38205791862486    0.04727085081598
C          -1.93753193096016   -2.99548967800109    0.04481398075313
N          -0.17509887765405   -6.17106675846057    0.01412817273912
N          -1.03487052768119   -7.12861349123576    0.03967010914469
C          -0.48558256426019   -8.37809846594235    0.03748371528427
C           0.88204042277919   -8.80654030482658    0.01123937733627
N           0.97084791089992  -10.10403125125119    0.02195589293937
C          -1.21178269871697   -9.55318441088792    0.06492470568115
N          -0.30086829376421  -10.56798779099237    0.05473279257824
C          -0.58512724600607  -11.86528120752169    0.07527611919377
N          -0.85971358505148  -12.97576775036922    0.09349768580290
H          -2.22033759730480    0.14975863891250    0.05347058169620
H           1.70522774440080    1.43472159392754   -0.04141451818310
H          -2.78952920420817   -5.01493838643885    0.06930893104935
H          -2.83306727068058   -2.40165089971813    0.06489547092587
H           1.75791037104505   -8.19068731106639   -0.01423438703892
H          -2.26673214507848   -9.73292963634369    0.09017126597957
