32
         -58.562910679010          0.000676651251
C           0.95648343206629   -0.44478414891774   -0.01247581439437
C           0.91753347600968    0.95949851866497   -0.00212590316231
C          -0.35085291721392    1.45009203402331    0.03025841404412
S          -1.53186653268239    0.20455603859199    0.04865996259310
C          -0.29102524261131   -1.01923720866051    0.01226783845177
C          -0.62532154909324   -2.40250420286689    0.01364846683415
S           0.60691840607990   -3.62262457661569   -0.01421521362111
C          -0.60003898010577   -4.88656526827975    0.01194110545289
C          -1.87962660966980   -4.35131803591789    0.03825803712065
C          -1.88996665867960   -2.96377601378233    0.03905453042014
N          -0.14784411743066   -6.15018266738260    0.00568579929665
N          -1.03203375600751   -7.08576851542983    0.03602975507194
C          -0.53272205744561   -8.35135340143719    0.03203724601955
C           0.80515552151488   -8.84489653306260   -0.00524867729031
N           0.82078356001224  -10.15177471015313    0.00986565127246
C          -1.31464091297887   -9.49961799829801    0.07068511541745
N          -0.46616926421491  -10.54651960946470    0.05637799990420
C          -0.77783648321288  -11.88845828101011    0.08608935073894
C           0.09976245576497  -12.93412240208695    0.07185391781111
C          -0.55952331389805  -14.18025616450740    0.11382381246928
C          -1.91066055856305  -14.06489180092215    0.15879146628595
S          -2.42737858728071  -12.42274106212388    0.15131714307750
H           1.86020658484933   -1.02680951470079   -0.03696872125879
H           1.79455166032910    1.58121253064266   -0.01781202740082
H          -0.66941349737059    2.47330603216107    0.04473004946240
H          -2.75104923711763   -4.98042359986733    0.05622124577611
H          -2.78253612225018   -2.36267272756089    0.05831328331216
H           1.71279968652807   -8.27775513823233   -0.04146926676747
H          -2.37759816709905   -9.62073179805306    0.10671239272959
H           1.16352421572487  -12.79591601171741    0.03313319439782
H          -0.04511534037116  -15.12394096662986    0.11067767567307
H          -2.64894909358241  -14.84040279640295    0.19639217026225
