25
         -45.730001659086          0.000717801332
H           0.81450709723926   -0.00974333886630   -0.01053074431078
C           1.88679411021044   -0.01125604713628    0.00197707470760
S           2.73071438856977    1.47759272828478    0.00512971171221
C           4.26071917183866    0.63590153394707    0.02677664913152
C           4.07273713882163   -0.73367499048173    0.03059438292526
C           2.72161208503652   -1.09314943538225    0.01636575269135
N           5.37366585689076    1.39744026363969    0.03396103095471
N           6.49675839727482    0.77556862989268    0.05111780431745
C           7.60176074050365    1.57024546086304    0.05530787231642
C           7.75483952670548    2.98824366282968    0.04830383870384
N           9.01919679314642    3.32038336901066    0.05516359048089
C           8.90617113942404    1.09030532929384    0.06737994911276
N           9.71478977243916    2.16782651648859    0.06637336145708
C          11.09292197942106    2.19118831574295    0.07325817845512
C          11.89233266203768    3.29773278950541    0.07317019435111
C          13.26234585002024    2.96210929556136    0.07979930498836
C          13.48091436882088    1.62289046081902    0.08471575428236
S          12.01460397060277    0.72077109491112    0.08148981563635
H           4.89968931359116   -1.42001895556216    0.04300233534121
H           2.37083197074273   -2.11011618663432    0.01659157917968
H           6.98503618992858    3.73271195827459    0.03896323920834
H           9.28179464238422    0.08790189185169    0.07562177754577
H          11.49854993277582    4.29640052275310    0.06841395504040
H          14.05200184326299    3.69131969270147    0.08071598509560
H          14.41410105831130    1.09645543769233    0.09002760667531
