21
         -40.857560980210          0.000653283569
N           0.88428262882197   -0.00578171212212   -0.17264404832460
C           2.23803623356502    0.07222535930841   -0.08491472546074
S           3.03975058790636    1.60450276747103   -0.06829053854669
C           4.61320716100578    0.80829147824620   -0.04016205456566
C           4.45768227693708   -0.56961623892176   -0.04055988164622
C           3.13223161379871   -0.98312588319546   -0.06573917098416
N           5.67932157728024    1.60561560354809   -0.02917770349602
N           6.84815398109404    1.06129916994620   -0.00362192661162
C           7.87892666489210    1.95885133695752    0.00104915976847
C           7.87789853975198    3.39182389326084   -0.00724165679351
N           9.08892042593799    3.86779169326491    0.00078207190994
C           9.21641607591607    1.61884208210983    0.01499755227182
N           9.91375112079105    2.79415379969211    0.01376917705739
C          11.23518736941367    2.91003398139587    0.02242887882830
N          12.37770161288214    2.98004310641825    0.03064536375226
H           0.34969193388972    0.82570357540986    0.01319504440826
H           0.44937973930436   -0.88482549353410    0.05378514546135
H           5.31003941483719   -1.22458766545863   -0.02315910367925
H           2.81751211079849   -2.01141877069705   -0.07294978893937
H           7.02724875459858    4.04251401401170   -0.01800220329985
H           9.70636017655132    0.66727390287467    0.02424040890469
