21
         -36.072150420783          0.000344226559
H           0.77641036690784   -0.07968157392933   -0.01478129848737
C           1.84826417749074   -0.05035456986661   -0.01217625816607
S           2.64909570440665    1.46296303427925   -0.01857116778148
C           4.20318489986639    0.66646723410793   -0.01029730615447
C           4.05499479219264   -0.70687276076124   -0.00291656402064
C           2.71438498386593   -1.10633082592981   -0.00395576325018
N           5.29408738787473    1.46193301075137   -0.00984034468650
N           6.43430833877354    0.87303266047998   -0.00633294532593
C           7.51842950388079    1.69694904369713   -0.00328662871908
C           7.64247727731924    3.11311112672091   -0.00374183608897
N           8.90550165158359    3.46482266507716    0.00142109347848
C           8.83870420455833    1.24636381321174    0.00260247257190
N           9.61913417947109    2.33308757649537    0.00529422661656
C          11.05166389033411    2.39079206559542    0.01251384318137
H           4.90129517161205   -1.36919803719207    0.00316406533670
H           2.39426124047314   -2.13335409936311    0.00114572194968
H           6.86013014094361    3.84403516459333   -0.00772897633304
H           9.22885222500425    0.24940596271392    0.00494496092603
H          11.45585127846889    1.38096119056313    0.01297898161400
H          11.39644892205829    2.92467666428945    0.89953524659958
H          11.40519966291413    2.92749065446607   -0.86930152326059
