29
         -53.444691781261          0.000425102742
C           3.24650729597215   -1.25374772646294   -0.70422548972668
O           3.37364587245957    0.15306571288660   -0.71417889875761
C           3.57818266167480    0.75536145430119    0.46889643375976
S           3.69607339339817    2.47931912466897    0.45510467822864
C           3.92841565619136    2.48939916574156    2.19995423549039
C           3.90860587540822    1.20449658347255    2.70420183994358
C           3.71048318381618    0.22337621430643    1.72906435678757
N           4.07369188720908    3.69060483615086    2.78037190604893
N           4.23863521084420    3.71536095027247    4.05561751212776
C           4.36231530678490    4.96356728496166    4.59188631950540
C           4.32830458877154    6.25491462306054    3.99396986261321
N           4.47924247865710    7.19073811973390    4.89782354843357
C           4.54912056734925    5.21882801424805    5.94587886608657
N           4.61282515449870    6.55791202099646    6.07971170127878
C           4.78524016060778    7.29815792908492    7.23067858662109
C           4.93574478334454    6.96462319485528    8.55529894013136
N           5.06963233139777    8.09619499658361    9.28935283743523
C           5.00409130244308    9.09076107978149    8.44982986301429
N           4.83083808225328    8.66319528534707    7.17615747181687
H           4.74366209063810    9.18936323989110    6.32100230166666
H           3.07362394899008   -1.54137096599258   -1.73921303948903
H           2.39913767345313   -1.56832207523027   -0.08797321699165
H           4.16044838239137   -1.72989275404555   -0.33734250815130
H           4.03448899200187    1.00771945192405    3.75343441092380
H           3.66722839164736   -0.82829143889077    1.94724476583083
H           4.19972875901407    6.49697406846933    2.95889859137915
H           4.63596994542902    4.55264500898470    6.77766928433996
H           4.95521922333904    5.99903816485295    9.01614620168276
H           5.07687680001421   10.12433843604716    8.71985863796898
