26
         -50.251283384413          0.000851381933
C           0.94826469954751   -0.50630145598230   -0.03278450162914
C           0.91676093728049    0.89732958832711   -0.03286712055192
C          -0.34988083384123    1.39476560519100    0.00189275902706
S          -1.53740134512824    0.15810492584260    0.03522940494706
C          -0.30366175083547   -1.07296966480528    0.00215903964149
C          -0.64479163511002   -2.45352253282089    0.01399575832785
S           0.57867674891306   -3.67912403453164   -0.01418381441643
C          -0.63689146609649   -4.93594272100388    0.02312362496621
C          -1.91504381345112   -4.39225890162139    0.05432423375368
C          -1.91527532469143   -3.00643661141221    0.04912638970480
N          -0.18730120271153   -6.19582490288876    0.01837698788547
N          -1.05649388866223   -7.14417364047399    0.04956842153493
C          -0.51444447904871   -8.39711436789899    0.04338958730811
C           0.85182415465479   -8.82891884251169    0.00177006522282
N           0.93725707199762  -10.12653171735495    0.01168331091278
C          -1.24357414264639   -9.56979900251677    0.07939457206391
N          -0.33472042059001  -10.58737275693186    0.05933050947731
C          -0.61902976345746  -11.88458031232330    0.08292077184751
N          -0.88627037656364  -12.99684566362021    0.10427938098741
H           1.84924845735724   -1.09253073150533   -0.05727030121440
H           1.79644026588007    1.51466935879898   -0.05748817850558
H          -0.66092435947964    2.42035428611500    0.00998233183500
H          -2.79166749377105   -5.01389489609103    0.07972492380009
H          -2.80348382107020   -2.39918144445361    0.07031800436693
H           1.72928929778051   -8.21593092416730   -0.03408119740405
H          -2.29836551625654   -9.74836863935826    0.11692503611050
