25
         -46.212897893989          0.000944229919
H           0.76919208008913    0.05128382863461   -0.01165192013518
C           1.84145294827067    0.05120665296952   -0.00290379286280
S           2.68253742413460    1.54094385692958   -0.00001728111878
C           4.21441864389898    0.70163065233704    0.01454936573875
C           4.02812792155220   -0.66810708744878    0.01695482323467
C           2.67788890790287   -1.02957603026429    0.00698174321050
N           5.32611374231057    1.46492239498928    0.01955329909662
N           6.45047207725823    0.84663557427868    0.02993320650997
C           7.55377987703743    1.64684479287226    0.03227533458294
C           7.69467749965363    3.06340307047297    0.02711743328141
N           8.95883069348020    3.40412124373760    0.03038853234728
C           8.86151170834169    1.17241702676008    0.03896637165783
N           9.66195028578119    2.25416794047633    0.03730523184955
C          11.04063765134150    2.30134548831423    0.03993590762484
C          12.01847511404203    1.33547036644541    0.04426964654736
N          13.23554948355444    1.93090021871182    0.04443698652327
C          13.01789994466565    3.21592913460164    0.03945121886652
N          11.69406244615361    3.50192922916125    0.03688774430378
H          11.22522083831037    4.39409234636701    0.03306365767538
H           4.85638985987263   -1.35290741421512    0.02562276153340
H           2.32852184353944   -2.04686588609094    0.00694600495295
H           6.91880839557475    3.80133107685789    0.02158132867314
H           9.24212865699126    0.17322678773243    0.04435481240489
H          11.92245578817097    0.26963510024563    0.04762317860970
H          13.78280616807200    3.96516963512384    0.03793440489211
