32
         -59.507000487272          0.000407925013
C           0.88140456534964   -0.40637201383537   -0.01649564166291
C           0.66623012638569    0.94597096290297   -0.01368850098158
C          -0.73517030044136    1.08293122307332    0.01209347230601
N          -1.32679356712669   -0.08905383009461    0.02412011830139
N          -0.34301437411794   -0.99678509726057    0.00668017053120
C          -0.63063685682212   -2.33996327525780    0.01366660494111
S           0.61991028907550   -3.53355321802665   -0.00778735006320
C          -0.58133618579763   -4.80951237926566    0.01686720072459
C          -1.86192575053294   -4.28534107389999    0.03973032965714
C          -1.89082636889652   -2.89341725079277    0.03797586290351
N          -0.11649318032770   -6.06967577136584    0.01211426654908
N          -0.99274906293432   -7.01123763643343    0.03059126556046
C          -0.48801212545831   -8.27509165150084    0.02727359761984
C           0.84962837739286   -8.76318602548397    0.00563915939196
N           0.86648700574079  -10.07225942809923    0.01255099636634
C          -1.27124659494582   -9.42558398647478    0.04778105087356
N          -0.42152857043054  -10.46866461841605    0.03828068908854
C          -0.71665916474600  -11.81616578896919    0.05254854792961
C          -1.89381220560465  -12.52533442106248    0.07936912306021
N          -1.61658975256122  -13.85157230237306    0.08324963739809
C          -0.31775480907623  -13.95786699742404    0.06022272345586
N           0.28571160292519  -12.74552030332623    0.04049607977529
H           1.26510414678998  -12.50815000329814    0.02080935704082
H           1.78035471657676   -0.98826271977190   -0.03259601058479
H           1.39745112730770    1.72701856540226   -0.02788557463000
H          -1.31797641267955    1.98211555025781    0.02213123822673
H          -2.72701113956557   -4.92281719789425    0.05703859523094
H          -2.77765683695541   -2.28758363554380    0.05360055929504
H           1.75738721857966   -8.19551790607967   -0.01412112627832
H          -2.33341468179042   -9.54644782925959    0.06784762435399
H          -2.90300935721852  -12.16965926892227    0.09556080537895
H           0.21923812190567  -14.88421067150421    0.05681512824053
