32
         -59.043462383518          0.000457519711
C          -1.12888522939082    0.14741572855968    0.00481718618445
N          -0.37970095205893    1.26872135867281   -0.02668102270739
C           0.86419889728712    0.87227867215558   -0.07102285691604
N           0.96299384268825   -0.47519976963284   -0.06995146117208
H           1.79974790695032   -1.03509379716529   -0.09862700148462
C          -0.31610143004338   -0.97398322514680   -0.02114422662686
C          -0.62659011695297   -2.36364184812159   -0.00387117897664
S           0.61781860869631   -3.57542793306130   -0.04415072132604
C          -0.57399239738549   -4.85144004018072    0.00777267159083
C          -1.85578387200288   -4.32645622869481    0.05236100969432
C          -1.88311394254297   -2.93773139951000    0.04579760445777
N          -0.11029595798682   -6.11112600487196    0.00063054567317
N          -0.99120554247113   -7.04986468818295    0.04216462928200
C          -0.49360173709611   -8.31506848602953    0.03754186868472
C           0.84182208736618   -8.81449742095055   -0.00813320174619
N           0.85169071743311  -10.12156231450475    0.00934758571029
C          -1.28007388361493   -9.46067447444831    0.08382735202772
N          -0.43600613245352  -10.51059906254808    0.06541613690690
C          -0.75297447312762  -11.85146239838068    0.09897746243924
C           0.12136057253321  -12.89977074242360    0.08036565587386
C          -0.54143137660158  -14.14379479124096    0.12782758684945
C          -1.89197648986878  -14.02427834205928    0.18112940164987
S          -2.40381527196609  -12.38062657320662    0.17515338525245
H          -2.19762539030033    0.19823117297248    0.04401449823248
H           1.71213577067549    1.52635747294428   -0.10443701558853
H          -2.71972331549730   -4.96497647481109    0.08823924793332
H          -2.78372088324715   -2.35191196624663    0.07635385217223
H           1.75274771330618   -8.25305732578431   -0.05177081221623
H          -2.34329824483801   -9.57681565210573    0.12730821926472
H           1.18536865171003  -12.76540526335885    0.03480522666942
H          -0.03018179448730  -15.08920122752351    0.12249638291606
H          -2.63185633471221  -14.79796695511415    0.22412198929532
