32
         -59.526278405781          0.000564176050
C          -1.15280526202530    0.12074361021708    0.01186854172148
N          -0.39899463680655    1.23888119494642   -0.01733485426392
C           0.84348468631594    0.83756377445801   -0.05899981255527
N           0.93689161986565   -0.51010494892944   -0.05830497505216
H           1.77112193774461   -1.07386799906180   -0.08530847025515
C          -0.34441556667861   -1.00390226971476   -0.01271233005759
C          -0.65812889475044   -2.39283506613972    0.00280558544000
S           0.58580139681270   -3.60467869419242   -0.03548487334622
C          -0.60668780013823   -4.88078841854851    0.01198438120517
C          -1.88829944749957   -4.35529110988896    0.05387855601030
C          -1.91506335130866   -2.96648860399799    0.04866225797129
N          -0.14032391386719   -6.13924504947040    0.00345946455439
N          -1.01590309000487   -7.08238792488801    0.04196433885236
C          -0.50850909789945   -8.34513774808094    0.03401224113001
C           0.82953983219733   -8.82986297224922   -0.01322028449572
N           0.85020365976337  -10.13893932389851   -0.00031416912290
C          -1.28804032551232   -9.49742916820859    0.07634556493670
N          -0.43575145418594  -10.53857029189076    0.05427607634533
C          -0.72675578869195  -11.88672208697041    0.08180058240174
C          -1.90106637670732  -12.59874560574579    0.13919012707918
N          -1.62018270719945  -13.92423091423114    0.14358718928545
C          -0.32209755571893  -14.02726372251110    0.09077234130438
N           0.27756866681302  -12.81349074546564    0.05122205155401
H           1.25543797098394  -12.57336455230302    0.00809733379097
H          -2.22139306704678    0.17599452407219    0.04859672334117
H           1.69408862157695    1.48828239786514   -0.09016257146806
H          -2.75286797314338   -4.99314952222345    0.08673606850518
H          -2.81561015073942   -2.38050210382577    0.07745176617947
H           1.73548420745590   -8.26048267517890   -0.05479356435393
H          -2.34915902807920   -9.62126179511117    0.11916220737486
H          -2.91052601696053  -12.24564149470927    0.17703172550154
H           0.21728890543472  -14.95212069412323    0.07955078048597
