25
         -50.358977362460          0.000676279116
C           0.86966459224123   -0.42718469258381   -0.02922777652041
C           0.66558224899165    0.92609358346610   -0.02998811275043
C          -0.73572854945929    1.07455415058195   -0.00051125954854
N          -1.33652843164739   -0.09192780955765    0.01659740177716
N          -0.36007556458221   -1.00790538416304   -0.00077328108721
C          -0.65465996441584   -2.34809894059727    0.01102045956264
S           0.59070076769187   -3.54510047066164   -0.01060732458220
C          -0.61548169451899   -4.81715754735704    0.02109414970979
C          -1.89532306768417   -4.28785791872155    0.04622374245202
C          -1.91845869582473   -2.89682721301069    0.04063664304235
N          -0.14446919365892   -6.07171573055366    0.01861296851513
N          -0.99798137023089   -7.03200133130755    0.04085105309405
C          -0.44403350934824   -8.28040231189684    0.03891298818892
C           0.91146679099760   -8.70717401591720    0.01674311620008
N           0.98658971226328  -10.02069345708489    0.02523031658354
C          -1.18211358967267   -9.46506293634375    0.06151235327269
N          -0.25803843379077  -10.42615676807261    0.05143803424086
F          -0.52628257223274  -11.75826322880585    0.06666971755706
H           1.76409052818540   -1.01588595693490   -0.04609392401061
H           1.40312295226443    1.70091530330389   -0.04864564796146
H          -1.31060035948230    1.97867284216124    0.00841754435219
H          -2.76339255075342   -4.92115105899950    0.06787094780947
H          -2.80267175632993   -2.28710261954028    0.05714170285120
H           1.79538414783080   -8.10412922073790   -0.00433249696988
H          -2.23317243683377   -9.65765726666561    0.08257668422159
