25
         -50.723368159616          0.000497752240
C           0.88711554398803   -0.37664629816357   -0.02214565535796
C           0.61005924488802    1.00442601929828   -0.01755649744544
C          -0.74900802945894    1.11475704623438    0.01387691976538
O          -1.32821859686735   -0.09381094236181    0.02893306207044
C          -0.33422145480486   -1.01357982979993    0.00713429208993
C          -0.66193956656833   -2.40274967542304    0.01732572128374
S           0.57486811246063   -3.60883661665920   -0.00709547963791
C          -0.62693801181650   -4.88046112804477    0.02350487451624
C          -1.90993312706521   -4.35155716286500    0.05051226412031
C          -1.92703453300409   -2.96395413713876    0.04704603446793
N          -0.16173802038478   -6.13729205490476    0.01832222819866
N          -1.02051022075253   -7.09388947099767    0.04075289847937
C          -0.46946158205534   -8.34406018866873    0.03526292185343
C           0.88555027979917   -8.77173755897075    0.00883299835604
N           0.96030144467741  -10.08554819849219    0.01433960459085
C          -1.20820874527159   -9.52794820848082    0.05726375015622
N          -0.28466366295990  -10.49019809280481    0.04289150536022
F          -0.55448965679909  -11.82259897390861    0.05589164580861
H           1.84613936728892   -0.85189089320983   -0.04382234244926
H           1.32037103282540    1.80492594257693   -0.03510932102344
H          -1.39776715168432    1.96808589846920    0.02790489762009
H          -2.77919699853038   -4.98360508575381    0.07178078373065
H          -2.81879348830632   -2.36331769674410    0.06534863296586
H           1.76955936675885   -8.16887780650034   -0.01316374288941
H          -2.25922154635694   -9.72054488668629    0.08062800336945
