25
         -49.897940422028          0.000320183659
C           0.94216958363743   -0.47849752420611   -0.02143948860499
C           0.90252935060568    0.92522882193137   -0.03342629748286
C          -0.36693662433537    1.41529331283995   -0.01329313603709
S          -1.54725687069806    0.17073833774598    0.02113958134857
C          -0.30597879755154   -1.05298004900492    0.00791783141644
C          -0.63765127543008   -2.43650418316989    0.02494815400016
S           0.59652466493694   -3.65277694820073    0.00728402209846
C          -0.60783168561582   -4.91977182521421    0.03865575434895
C          -1.88964668977087   -4.38691265010894    0.06200208617249
C          -1.90251112174142   -3.00027165375743    0.05414132756298
N          -0.14783954174832   -6.17835941738903    0.03292111402853
N          -1.01379279524807   -7.12866386269471    0.05638732094670
C          -0.47590767332910   -8.38420076372885    0.04414768740302
C           0.87319182985605   -8.82849523192009    0.00339701506066
N           0.93149488553813  -10.14328319133414    0.00396721600785
C          -1.22949668198369   -9.55878979151926    0.06913434495133
N          -0.31834828711670  -10.53229994746163    0.04303277870768
F          -0.60413570407906  -11.86158469823564    0.05412129676359
H           1.84618422007924   -1.06052197774888   -0.03376573082036
H           1.77905901494118    1.54729000794283   -0.05624284935008
H          -0.68525732719560    2.43875269768682   -0.01662261325083
H          -2.76008765814048   -5.01728918950848    0.08302320150752
H          -2.79596293417978   -2.40044104727127    0.06868560742323
H           1.76415049774983   -8.23612657129787   -0.02540016123515
H          -2.28273237918088   -9.73726265437481    0.10196393703329
