20
         -36.308745449575          0.000627304817
H           0.95425638196364   -0.00820684970010   -0.13944602428351
C           2.02630598044331    0.00079569832553   -0.11826804406512
S           2.85693759962625    1.49568466682521   -0.19321144432740
C           4.39550803435566    0.67116527930120   -0.11409658355393
C           4.21918467015758   -0.69669229123006   -0.03296276121787
C           2.87092809280433   -1.06950786551739   -0.03531998236462
N           5.49776856759609    1.44852283115935   -0.12947913460237
N           6.63209618319968    0.84894765447247   -0.09549342678152
C           7.72057276832257    1.66781893370268   -0.09201892737306
C           7.83823044692031    3.08212037741116   -0.07171448447631
N           9.10217962393699    3.43957583173149   -0.04652202132029
C           9.04154717246215    1.21369509446429   -0.09152483679368
N           9.80878687372242    2.30791699209550   -0.06524255329112
N          11.18999315189501    2.34170501805750   -0.08808708305492
H           5.05175495408283   -1.37372210194268    0.02589038208235
H           2.52953768986618   -2.08812136778727    0.02149805253207
H           7.05315358936790    3.80985658369684   -0.07183455194495
H           9.44791900726133    0.22473831318608   -0.10613677297183
H          11.58083488740927    2.09116281693088    0.81932929783712
H          11.47238432460647    3.29069438481735   -0.31990910002905
