27
         -49.602897091926          0.000774022234
C           0.86610024060141   -0.40262823241061   -0.03539327879091
C           0.64742973605381    0.94968569018679   -0.01941195872952
C          -0.75290578958266    1.08230973107304    0.03341559745155
N          -1.34108742251287   -0.09210067950838    0.04827871287260
N          -0.35547512808933   -0.99624700974691    0.00630610494431
C          -0.63853303625992   -2.34124592933242    0.00781313050536
S           0.61680771006127   -3.53102270940070   -0.04513814764337
C          -0.57853582957556   -4.81122600373648   -0.01749013058580
C          -1.85993658529367   -4.29324058079657    0.03381624412320
C          -1.89454541050178   -2.90043121149083    0.04909742244847
N          -0.10689210220649   -6.07006866745883   -0.02703030267668
N          -0.97831522730241   -7.01561694698388   -0.05301531321799
C          -0.47084153257859   -8.27728767671972   -0.03190935906238
C           0.85983328374137   -8.76319529880351    0.05836643313135
N           0.87122755767959  -10.07716894532069    0.07271417822879
C          -1.25455881999454   -9.43338980724720   -0.08549346029643
N          -0.40287122226468  -10.46064959912904   -0.02029544643207
N          -0.72974762622599  -11.80214077671205   -0.07489453183996
H           1.76684494871039   -0.98080132175504   -0.07232805027798
H           1.37670182011914    1.73242648612812   -0.04199184147497
H          -1.33838614517689    1.97948498371790    0.06058500659142
H          -2.72229812591897   -4.93395141282947    0.06087211109834
H          -2.78398456000359   -2.29927846226598    0.08692450803409
H           1.76803747455185   -8.19919400230078    0.11367684970420
H          -2.31317927925049   -9.56476474679211   -0.15955329862481
H          -1.17130117456454  -12.11142932488859    0.79018734805497
H           0.13167224578415  -12.32430754547609   -0.21630852753579
