32
         -59.869844555787          0.000666512953
C          -1.14685718144624    0.10654340190014    0.02028257305545
N          -0.38416327189662    1.21896970448300   -0.00309408249546
C           0.85541214738407    0.80777081646320   -0.03907809432750
N           0.93794162121858   -0.54049817434260   -0.04026662403736
H           1.76770560777544   -1.11105380252330   -0.06401804606784
C          -0.34737559461053   -1.02441099037082   -0.00211569872717
C          -0.67037855285937   -2.41126736128832    0.00946165555620
S           0.56802720001129   -3.62897252228589   -0.02515244984296
C          -0.63106466215329   -4.90044992513799    0.01432838649871
C          -1.91026768233191   -4.36821621590200    0.05120146827582
C          -1.93019688135182   -2.97921325945235    0.04843453135847
N          -0.16395044343023   -6.15706357793042    0.00636240116004
N          -1.03084173129205   -7.10886337651644    0.03712047938463
C          -0.50154290376552   -8.36298024606316    0.03062576739254
C           0.85069969133646   -8.81556722492568   -0.00750806560150
N           0.90703528437636  -10.12156531363355    0.00323835741774
C          -1.24995727153203   -9.53368705117716    0.06508318067388
N          -0.36717947386058  -10.55372964420233    0.04750243696149
C          -0.63674425677818  -11.90534418638843    0.07162231359684
C           0.21513358803771  -12.97442377619409    0.05663220770672
C          -0.61891037749040  -14.11712087738859    0.09796395966586
C          -1.89775172820221  -13.65725470506084    0.13439047665358
O          -1.92076838015642  -12.30767047497609    0.11872915327220
H          -2.21520007436766    0.16976593125562    0.05159556851425
H           1.71117075294782    1.45195690828436   -0.06469423807347
H          -2.77794744635514   -5.00219238691391    0.07899392666136
H          -2.82770598182307   -2.38833102418716    0.07412574343996
H           1.74000008557776   -8.22011297942728   -0.04129742621753
H          -2.30735439552965   -9.69218117550382    0.09993744718343
H           1.28244798881578  -12.93053431133491    0.02110200365041
H          -0.30296819782788  -15.13957619236211    0.10013862570259
H          -2.84395747842052  -14.15789598689711    0.17166206160859
