22
         -39.745676258779          0.000692086877
N           1.00366226357498   -0.11320484849412   -0.14570301193366
C           2.36450649788320   -0.03106820693077   -0.04839628946789
S           3.16527569107507    1.50410412137573   -0.08842598174866
C           4.73901326424570    0.71409251075114   -0.02336745417809
C           4.58728147065686   -0.65855700239972    0.02907781440645
C           3.25825868773531   -1.07801031936417    0.01693106186894
N           5.80802258959213    1.51880347758719   -0.02076125357545
N           6.97065315199326    0.96544865267426    0.01140530523466
C           8.01917420432141    1.83909401793312    0.03854537306938
C           8.06518430925711    3.25519069909653    0.10384087857632
N           9.30970114020046    3.67805170018249    0.14273242888165
C           9.35922903297755    1.45349523767818    0.02704672800449
N          10.07261699438311    2.58528082929139    0.08784739553731
N          11.45319544810427    2.68067576035571    0.07972691337138
H           0.48290942654553    0.72622435400805    0.04689351795574
H           0.58088959655651   -0.96977662273974    0.17262586857050
H           5.43963863700697   -1.31194159439489    0.07715693962104
H           2.94820079683750   -2.10743753148549    0.05149182822752
H           7.24456248216491    3.94252878504209    0.12600938544222
H           9.81736541497622    0.48866774647304   -0.02040955099106
H          11.83729121409718    2.50969996412556    1.00918688986349
H          11.69632768581475    3.62724826923448   -0.20292478673632
