28
         -48.904914390678          0.000819270942
C           0.92112775503801   -0.46416043249419   -0.04047462002178
C           0.87943108937714    0.94038653025313   -0.05371519948612
C          -0.38945832658476    1.42901938450940   -0.02320145715523
S          -1.56811374675443    0.18069488654498    0.02139598898778
C          -0.32471517961805   -1.04091033162790    0.00050496160346
C          -0.65389824117291   -2.42548527743689    0.02280568901820
S           0.58695749676244   -3.63890274674113   -0.00119508800831
C          -0.61054958433258   -4.91026776419570    0.04160043950348
C          -1.89290563459700   -4.38425249984634    0.07314519675041
C          -1.91311557413471   -2.99557142667620    0.06207716114631
N          -0.14352518004362   -6.16944294867422    0.04157788322987
N          -1.01217083039876   -7.11878201395853    0.06474175379162
C          -0.48697464596249   -8.37461615374368    0.06796988173984
C           0.85681488459833   -8.83959265457775    0.04640126305071
N           0.89182240412167  -10.15005392049389    0.05780187344197
C          -1.24461590322217   -9.54547819128485    0.09666640863673
N          -0.37951785943847  -10.56696099934935    0.09011843504068
C          -0.66958238442190  -11.97090073629440    0.11291071350895
H           1.82560505614569   -1.04526657960566   -0.06002063254218
H           1.75540150344611    1.56317898134013   -0.08537103917248
H          -0.71049256118517    2.45164844967109   -0.02555288208937
H          -2.76053486180241   -5.01827875815023    0.10215912454193
H          -2.81015934655733   -2.40088392123497    0.08176504002430
H           1.75452157500139   -8.25650135384680    0.02092479215660
H          -2.30616836829506   -9.68263483738341    0.12040592039763
H          -1.74686081169249  -12.11958481841529    0.13531842205665
H          -0.21725631390400  -12.42795497142231    0.99465630538776
H          -0.25107641037225  -12.44949489486513   -0.77394633553946
