24
         -43.540127014594          0.000541151384
C           1.83606851489910   -1.08022302107777   -0.99122230222077
O           2.46170776217700   -0.12563465686541   -0.16037423059700
C           3.03068709560512   -0.58200756306631    0.96965103063028
S           3.78074106192831    0.59246155524557    1.99256409008933
C           4.23202568351048   -0.66976978923433    3.13228862101760
C           3.80165468881663   -1.90387356258660    2.69171907666374
C           3.12317596672294   -1.85731834848749    1.46936126433385
N           4.91579046205597   -0.28029226729114    4.22124323972826
N           5.22951332234167   -1.18724004810372    5.07679422017094
C           5.94167811017265   -0.74160815961814    6.15102986845670
C           6.45123616022121    0.54145867191867    6.47802642773864
N           7.10981526615195    0.50195075815909    7.61491416506591
C           6.34752507607894   -1.55185403568925    7.21261826647522
N           7.03164436189738   -0.75827951053029    8.04443760570233
N           7.59909289691713   -1.13088071531294    9.24945302381772
H           1.43755926429485   -0.52093182038743   -1.83511418923498
H           1.02027030011290   -1.58596025805660   -0.46628720881314
H           2.55460121932563   -1.82370692581922   -1.34886173412528
H           3.98679886087510   -2.80051497856324    3.25484831107582
H           2.72206189168818   -2.72718024157021    0.98162022244870
H           6.35360108328527    1.45165608536678    5.92305537473115
H           6.19433943668757   -2.59202672346194    7.40693540882214
H           8.47132384567135   -1.63893008846748    9.10377426372756
H           7.79717766856294   -0.28115435650098    9.77249518429501
