18
         -37.064907889709          0.000449119187
H           0.85123180503968   -0.16718140319407    0.00051409069457
C           1.92312221308726   -0.13523219328924   -0.00780578250901
S           2.72027301831378    1.37647890833832   -0.00178644110893
C           4.27555768127856    0.58066762579982   -0.02086372393001
C           4.12815603110704   -0.79496480560031   -0.03089646302660
C           2.78946267742883   -1.19359078778054   -0.02330116694156
N           5.36272456633492    1.37583118393251   -0.02159376345359
N           6.50711650026611    0.79883515506714   -0.03707466721865
C           7.58018097501846    1.64492646617958   -0.03528376264267
C           7.66642806684924    3.06279901285920   -0.01836547683710
N           8.92327515369231    3.45261993762352   -0.02272769493417
C           8.90779467288678    1.21402613394046   -0.05038097665632
N           9.61755041428386    2.34218326402173   -0.04163033881377
F          10.97529435634326    2.40361588625951   -0.05058784190618
H           4.97527230928298   -1.45620325851813   -0.04294124088254
H           2.46779288933225   -2.21982555062379   -0.02894261421519
H           6.86781054487120    3.77518786499550   -0.00367089188628
H           9.34624612458346    0.23944655998878   -0.06570124373199
