25
         -46.555710035437          0.000664725153
C           0.87401096138712   -0.35046839828279   -0.02529967981876
C           0.57837509261435    1.02759403742344   -0.02959585373264
C          -0.78144643146537    1.12029196542401   -0.00144234979651
O          -1.34466599230736   -0.09670565133747    0.01982632403775
C          -0.33818785690456   -1.00306032699963    0.00538713172771
C          -0.65058384164555   -2.39644077050887    0.02127055189951
S           0.59937327348340   -3.59192598244227    0.00198887114003
C          -0.58896857969240   -4.87445624279462    0.03270082463199
C          -1.87574149090630   -4.35944767691123    0.05708883650775
C          -1.90783175364937   -2.97060897385755    0.05060231244437
N          -0.11649503867911   -6.13232673043229    0.02725309164209
N          -0.98134528435633   -7.08362095508919    0.04665168957193
C          -0.45187734599306   -8.34007489687051    0.03767060902024
C           0.89606980180483   -8.79932736198112    0.00888013564892
N           0.94006495286958  -10.10878486080787    0.00883214111380
C          -1.20773241897389   -9.50919959300681    0.05505150765688
N          -0.33064794464936  -10.52424660528671    0.03691598626360
H          -0.52833211934459  -11.51293345891735    0.04183348199435
H           1.83942660689173   -0.81276848470387   -0.04228434010878
H           1.27808898351033    1.83743783730001   -0.05077994264750
H          -1.44224139864390    1.96446856325432    0.00600719741770
H          -2.73840573797514   -5.00046632125258    0.07813398554258
H          -2.80660073156882   -2.38025611916281    0.06601527209240
H           1.78942659105065   -8.20979234274725   -0.01105835184774
H          -2.26775229685700   -9.65439065000877    0.07823056759857
