20
         -40.503552808404          0.000469913846
N           1.00316756120120   -0.11703257576542   -0.19813944333758
C           2.35834183416959   -0.02188735292709   -0.10814847139016
S           3.14096198430121    1.52098884062330   -0.08538629268979
C           4.72387849060544    0.74558187620358   -0.06307254052888
C           4.58670636327783   -0.63250805825406   -0.06943205030952
C           3.26516899161039   -1.06406791064538   -0.09444122737992
N           5.78149699286703    1.55838978870007   -0.05040758134193
N           6.95397349979431    1.02481823919062   -0.03115369262411
C           7.98205526768746    1.92718642798127   -0.02400872156983
C           7.98785708925926    3.34707220776908   -0.02381882696735
N           9.22096503673322    3.81096398137969   -0.01580276561239
C           9.33115248178522    1.57381485961277   -0.01537568626450
N           9.97665468650571    2.74270931116710   -0.01160319791386
F          11.33165767951758    2.88012219453525   -0.00370527514704
H           0.46193406595176    0.70489936207620    0.00814103823884
H           0.58415475210418   -1.00030067733199    0.04143681648339
H           5.44685449853777   -1.27717386886091   -0.05600723281414
H           2.96462083650074   -2.09660703309238   -0.10560668310930
H           7.14991403149601    4.01284019395540   -0.02844910191612
H           9.82779385609411    0.62765019368285   -0.01325906380579
