27
         -49.635120019486          0.000619695900
C          -1.17153879909857    0.09461141461143    0.04799821092875
N          -0.42460684915499    1.21888415691678    0.03809644494057
C           0.82067049673562    0.82538876902183    0.00742997258228
N           0.92197222108406   -0.52191586962372   -0.00499770682933
H           1.75961451250010   -1.08071416732546   -0.02872109547064
C          -0.35621399135144   -1.02422561552884    0.02061602310910
C          -0.65629051000375   -2.41697616939767    0.01595915241752
S           0.60316027087385   -3.61433038225493   -0.02426756275139
C          -0.57282462263645   -4.90529032266534   -0.00818071722750
C          -1.86126650881284   -4.39518250594762    0.02644339509549
C          -1.90607936773977   -3.00613669466937    0.03967424814315
N          -0.08257152336897   -6.15352917071903   -0.03560505339303
N          -0.93830031751952   -7.11388603854943   -0.01498349546127
C          -0.43675664055238   -8.37037109901595   -0.05029507381616
N           0.87876234889745   -8.75193325067849   -0.11228193616423
C           0.87243808740886  -10.04788749832033   -0.11801106735637
C          -1.24050190208073   -9.50687244164598   -0.01946641910285
N          -0.39096464439101  -10.55671316329303   -0.05726288427799
N          -0.74566714607747  -11.89947561087332   -0.12952889093950
H          -2.24090513877935    0.14273487378904    0.07266029805824
H           1.66800609570628    1.48109096378865   -0.00733626601630
H          -2.71830047730881   -5.04388292486934    0.03959272622652
H          -2.81432729523698   -2.43152492213813    0.06577572036703
H           1.74379615416191  -10.67146625429230   -0.16138642705787
H          -2.30365330199228   -9.61352749050300    0.02744440437551
H          -1.60075852416835  -12.06833384503406    0.39309883152350
H           0.00760737290533  -12.47726474078235    0.23267516809663
