19
         -37.438897430216          0.000688385276
H           0.84133591318825   -0.00896866139281    0.05035127840192
C           1.91344291640988    0.02151708717351    0.04987118821985
S           2.71523661172543    1.52909817334426    0.03861278054333
C           4.26813311904778    0.72734064105328    0.04404644206056
C           4.11424871024612   -0.64977549791378    0.05421655831602
C           2.77538126650227   -1.04255077436842    0.05746480372850
N           5.35527414992228    1.51746169751795    0.03764331813852
N           6.49736372788138    0.93557700943142    0.04119930184875
C           7.58531649915016    1.74781245131120    0.03435039514450
N           7.60258787228917    3.13112278914311    0.02494919810770
C           8.83447265462849    3.48071379806218    0.02081997046656
C           8.88030400000962    1.27387945030977    0.03576791369722
N           9.68663698850418    2.38487873793305    0.02700744696799
C          11.01081901659445    2.41065144883559    0.02450495780661
N          12.15470883039831    2.45227487223055    0.02252306308105
H           4.95921464328024   -1.31394057019154    0.05886688127528
H           2.44844338984000   -2.06712900905810    0.06505385035796
H           9.20634521396872    4.48624372397172    0.01345572092383
H           9.26746447641325    0.27671263260705    0.04193493091384
