27
         -49.663620638525          0.000831755869
N           0.88535810616345   -0.00490166031734   -0.18900737686949
C           2.24284803162789    0.09047114973674   -0.09266738192579
S           3.02689708060204    1.63342771841378   -0.07884187824580
C           4.60900665513111    0.85843139073976   -0.04814508259474
C           4.47040050247292   -0.51961486805140   -0.04448300680530
C           3.14797133437246   -0.95175606835870   -0.06900562587936
N           5.66457521337052    1.67365721673662   -0.04078539962364
N           6.83561876300987    1.13680598431316   -0.01779946427607
C           7.88306216887835    1.99962309157748   -0.01762704536792
N           7.84329705747265    3.37633678696023   -0.02814852474385
C           9.07171390229301    3.76807026323184   -0.02508963129725
C           9.20288858921062    1.58515028837145   -0.00777891047384
N           9.96228601949257    2.72164157680400   -0.01333710111830
C          11.33863329318518    2.82061318556247   -0.00820004463281
C          12.17185520516710    3.91380079698519   -0.01075464778418
N          13.46410095842652    3.50341419283971   -0.00317528991522
C          13.43599724448913    2.20362764276548    0.00379877776845
N          12.16387942163647    1.72586563440549    0.00119526316551
H          11.87386567038522    0.76214214796409    0.00469195542732
H           0.34979422779775    0.81895488987300    0.02554679119536
H           0.46857218939777   -0.88300804191236    0.07524842703447
H           5.32975606204087   -1.16523801747834   -0.02426945228050
H           2.84726392714895   -1.98454661355158   -0.07313060181562
H           9.39224277100839    4.79018272422102   -0.03105097120835
H           9.60692126105926    0.59488429823761    0.00057313262386
H          11.92332850957327    4.95453588631301   -0.01757702223240
H          14.29803583458666    1.56853840361763    0.01085011187547
