21
         -40.878223003615          0.000590208439
N           0.88657061841979   -0.02353041507131   -0.16421112365681
C           2.23962747150091    0.07030778751582   -0.06958879936567
S           3.02739765107773    1.60969065101775   -0.06818027695948
C           4.60788151797310    0.82882644729666   -0.02182269961436
C           4.46382400514891   -0.55131629405478   -0.00558362561987
C           3.14283249908063   -0.97756177336396   -0.03216977480484
N           5.66402103569789    1.63708884714350   -0.01520654350417
N           6.83633138832107    1.10234646455340    0.02244186485201
C           7.87635465242368    1.97515555815407    0.02303857433975
N           7.80765067653324    3.35811850811744    0.00072047598894
C           9.01531159676490    3.78474331756381    0.00977696847633
C           9.19759341947989    1.58450972923272    0.04667646572761
N           9.93495359796223    2.74685792419016    0.03757203742174
C          11.25260221246828    2.85836813464045    0.05141026642412
N          12.39168399307791    2.97715909044389    0.06339889959809
H           0.34412197268236    0.80502848017781    0.01033432464769
H           0.46053320051073   -0.90288241555538    0.07757666665768
H           5.32214012340818   -1.19794651329886    0.02477195082069
H           2.83699595194388   -2.00866246841630   -0.02813679370833
H           9.32158503093956    4.81224714942745   -0.00200334399116
H           9.64925738458514    0.61532179028564    0.06680448627004
