26
         -51.097516447957          0.000388344831
C           0.89771288583670   -0.40917062420579   -0.02956857389291
C           0.61834324228411    0.97103357744110   -0.02221511882094
C          -0.74118937583784    1.07881433956214    0.01417592405862
O          -1.31817313196645   -0.13038973579039    0.02974177361600
C          -0.32257425045426   -1.04897186525359    0.00318995952134
C          -0.64694181908330   -2.43865087143647    0.01230636986192
S           0.58819570875912   -3.64453030305036   -0.01990508390315
C          -0.61461315935262   -4.91637472209925    0.01306552222299
C          -1.89870143547034   -4.38421115743200    0.04685294347265
C          -1.91467431609342   -2.99836205732959    0.04638539176468
N          -0.15048104405186   -6.16992275790105    0.00233847364012
N          -1.00920128247549   -7.12674652763484    0.02626819271419
C          -0.48782627735199   -8.37995546232217    0.01516531529859
N           0.85206710919349   -8.72418766136539   -0.01906940684001
C           0.90114684768074  -10.00350507108433   -0.01716313325651
C          -1.25406047646746   -9.52644316556737    0.03802501060743
N          -0.36411565097599  -10.57325905233714    0.01736084726346
C          -0.64719548510305  -11.86645553420751    0.02864505732399
N          -0.86864863256473  -12.98954781277276    0.03794753250930
H           1.85712082637974   -0.88341261725264   -0.05520840720732
H           1.32673071321602    1.77323882253719   -0.04123389059796
H          -1.39082741467916    1.93149336722831    0.03152878931311
H          -2.76770274461131   -5.01668996841719    0.07047068733123
H          -2.80500388321784   -2.39576021196911    0.06974573565841
H           1.79067976494035  -10.60164402211165   -0.03896000505915
H          -2.31384671853318   -9.66856890522825    0.06611009339991
