25
         -46.574338590297          0.000925126666
C           0.87552810047680   -0.36898482567513   -0.02496503279797
C           0.58449662562575    1.00982510389236   -0.01865346361735
C          -0.77490478800863    1.10687935441666    0.01540323782312
O          -1.34216841703226   -0.10888632765128    0.03041201403094
C          -0.33848882863617   -1.01840117698231    0.00590001175981
C          -0.64877811960695   -2.41233628701496    0.01450402343976
S           0.60669602783895   -3.60280106390570   -0.01599464194435
C          -0.57428321543776   -4.89080172917671    0.01391155647837
C          -1.86438304077051   -4.38091010753091    0.04570003140861
C          -1.90374836432204   -2.99258713955480    0.04598085032051
N          -0.09127830756745   -6.14309690650016    0.00272722660193
N          -0.94718129061604   -7.10105174191025    0.02379908012028
C          -0.43521257938750   -8.35795224013362    0.01214752602583
N           0.89133066380093   -8.72087887924727   -0.01942431080000
C           0.90567243349531  -10.01185139067661   -0.01912152579770
C          -1.21926324317579   -9.50168482548888    0.03140664062213
N          -0.35101602443843  -10.54484270309412    0.01114511945326
H          -0.59464722488692  -11.52222005418343    0.01739732254791
H           1.83881930841323   -0.83522851851713   -0.04878718929943
H           1.28726523481237    1.81723283374455   -0.03686441900040
H          -1.43236403211785    1.95349570418696    0.03130799971044
H          -2.72308813352182   -5.02720409752594    0.06738469589545
H          -2.80553132213522   -2.40674466223118    0.06807091994080
H           1.79128384766585  -10.61597363765491   -0.04000188254576
H          -2.28172531046798   -9.62114468158525    0.05687420962382
