32
         -59.884207542965          0.000607871827
C           0.87410740728804   -0.36172851399517   -0.09638752760717
C           0.58646304197780    1.01766919223553   -0.09280949938613
C          -0.77191019494491    1.11801602733048   -0.02927692031725
O          -1.34142341757017   -0.09558436987191    0.00644450346097
C          -0.34068269733378   -1.00801813989802   -0.03423571770112
C          -0.65643220244306   -2.40026021355056   -0.00910637625874
S           0.58826113927213   -3.59891959211736   -0.05963936359084
C          -0.60254788586091   -4.87944730248504    0.00649949015416
C          -1.88795551977640   -4.35767672767496    0.06390135096915
C          -1.91610658351162   -2.97000529541374    0.05508295147792
N          -0.12728813629802   -6.13174717346003   -0.00633342510210
N          -0.98336017195272   -7.09064902553238    0.04138063845491
C          -0.46955983293406   -8.34474318771216    0.02751703371305
N           0.85676043999686   -8.70975952633500   -0.03154245269829
C           0.87212888476125   -9.99788078840042   -0.02135790364285
C          -1.25210008996946   -9.48692952202777    0.07386163428994
N          -0.38959365611773  -10.54322161198475    0.04240555632933
C          -0.69182505281952  -11.89000252025125    0.06840499383572
C           0.11597584206465  -13.00198244639653    0.03621188034633
N          -0.64668217530746  -14.12112080911795    0.08392501951307
C          -1.88244485021297  -13.72131567937631    0.14390276064450
N          -1.97585723401246  -12.36607015351493    0.13771183515830
H          -2.81461868979574  -11.81114902100542    0.17629928963082
H           1.83548664058940   -0.83068672524991   -0.13842967992859
H           1.28972904839485    1.82379211643786   -0.13192663226563
H          -1.42662275771236    1.96656973364026   -0.00448010555370
H          -2.75172249525990   -4.99604351522794    0.10978239713907
H          -2.81173145319936   -2.37571959669341    0.09343839776709
H           1.75399093710438  -10.60469847883019   -0.05743155286793
H          -2.31641243616440   -9.58103159920864    0.12421468559506
H           1.18289811196376  -13.06335288782681   -0.01782094477330
H          -2.73610396021622  -14.36582264648560    0.19259368321424
