25
         -46.225894197665          0.000828452422
H           0.81952979428004   -0.00481504540975   -0.02488384510885
C           1.89113397367942    0.03568084389173   -0.03187388796446
S           2.67889392103360    1.55383123806994   -0.03308061541060
C           4.23987122527533    0.76987038815251   -0.04537426997800
C           4.10050707667282   -0.60697944954105   -0.04812898156210
C           2.76487520902394   -1.01638372305483   -0.04045654874838
N           5.32090753378599    1.57304999866321   -0.05072177983332
N           6.46528540186668    0.99395154675004   -0.05886484272520
C           7.55629951225097    1.79854572059472   -0.06478659954072
N           7.59959255472405    3.17463859776766   -0.06376715459860
C           8.84877536156045    3.49054063307916   -0.07130447994765
C           8.85000633626827    1.30450097543820   -0.07335590869290
N           9.67474813998794    2.38955269990064   -0.07749923417819
C          11.05545880000946    2.40497592472998   -0.08613632677781
C          11.95308447577021    3.44604355582073   -0.09127073810580
N          13.21733470886599    2.95811142843479   -0.09938304297855
C          13.11092539046014    1.66214952414708   -0.09935490635878
N          11.81307994499182    1.26197163560290   -0.09141886163342
H          11.46556949127696    0.31734368205748   -0.08965747690244
H           4.95239940160960   -1.26226209250798   -0.05554039714311
H           2.45123536531524   -2.04536585749310   -0.04115187806028
H           9.23234626026008    4.49054242523198   -0.07277526946572
H           9.18908756829693    0.29003779632933   -0.07644567369218
H          11.76842235096361    4.49999099799656   -0.08962899749432
H          13.93359020177046    0.97688655534811   -0.10482828309863
