27
         -49.979488346421          0.000484744738
C           0.85630105548139   -0.34470638210119    0.00928034727558
C           0.54413152010453    1.02962696500536    0.02609965563920
C          -0.81663908640340    1.10584616359311    0.04374085624321
O          -1.36544571045395   -0.11852002691372    0.03951047166124
C          -0.34763701714571   -1.01266883300640    0.01830859459091
C          -0.64101695533573   -2.41042637071197    0.00884244330831
S           0.62480733187756   -3.59037240869756   -0.02625423484076
C          -0.54581655841398   -4.88858540544106   -0.01524366898438
C          -1.83961510008489   -4.38927852375502    0.01153855913736
C          -1.89082186623527   -3.00130810927664    0.02444098805529
N          -0.05871005332980   -6.14003104301331   -0.04568235856470
N          -0.91964766689049   -7.09465587354173   -0.00733882667632
C          -0.43030433531212   -8.35605494163600   -0.05044213654960
N           0.87947171773030   -8.75222707042573   -0.13426934675889
C           0.85925993050738  -10.04776726085454   -0.13578881218232
C          -1.24537997640668   -9.48360611126343   -0.00136609181017
N          -0.40806907415353  -10.54300800758732   -0.05089390690771
N          -0.78121312082000  -11.88170975917835   -0.10904974341369
H           1.82677898115967   -0.79604703020768   -0.00709492262315
H           1.23407904151008    1.84816334391394    0.02499003023799
H          -1.48734912496873    1.94202169627282    0.05943709366845
H          -2.69287269538550   -5.04298564106596    0.01866900892518
H          -2.79764202375763   -2.42341085579931    0.04562908155038
H           1.72295412026272  -10.68087814438395   -0.19316118005535
H          -2.30839386575457   -9.57918774081199    0.06503970931929
H          -1.60049367111966  -12.04673847108129    0.46885494857270
H          -0.01150579666204  -12.46807415803150    0.19950344118214
