32
         -59.404771633676          0.000723640922
C           0.87783133162658   -0.33235832966010   -0.10740839727548
C           0.58345020699248    1.04561665585593   -0.10435298993225
C          -0.77497584135931    1.13937290391169   -0.03478870638653
O          -1.33846312137102   -0.07706187616145    0.00464466959939
C          -0.33327589168649   -0.98455480397466   -0.03913821210119
C          -0.64150835127388   -2.37854825788546   -0.01102863857285
S           0.60973052995425   -3.57031545491267   -0.06492806853327
C          -0.57357395431581   -4.85679309672248    0.00698888567243
C          -1.86148022310991   -4.34264984080074    0.06882573877808
C          -1.89762377812861   -2.95520011384505    0.05861382836475
N          -0.09429151602181   -6.10892900280820   -0.00655154268022
N          -0.95207733202274   -7.06607877054631    0.04445332399456
C          -0.44647889676203   -8.32274118436625    0.02996173962194
N           0.87957571720663   -8.69534696038243   -0.03203137517109
C           0.88471942576442   -9.98247974358795   -0.02191399692475
C          -1.23621063166529   -9.45921812791217    0.07792241564302
N          -0.38041024887401  -10.52059611124379    0.04444996683910
C          -0.70394298752526  -11.86184803398215    0.07095284351283
C          -1.94389199354951  -12.43048411879531    0.13835383192328
C          -1.88821855821085  -13.84052115230036    0.14586225919213
C          -0.62211698604296  -14.32138833025288    0.08481971072787
S           0.55064320141593  -13.06426521769169    0.01576545309617
H           1.84117899019663   -0.79681983984887   -0.15316739910126
H           1.28248334838590    1.85518649064901   -0.14763456979725
H          -1.43392790266841    1.98458083228743   -0.00814442866760
H          -2.72081055252330   -4.98653830934440    0.11870861875182
H          -2.79655684141475   -2.36632695609578    0.09974415757146
H           1.76170438977845  -10.59891403187311   -0.05991425617898
H          -2.29874846944816   -9.55765848281166    0.13067031879475
H          -2.86047185118416  -11.87246407973376    0.18110676595544
H          -2.76084411827072  -14.46595468929503    0.19497358299488
H          -0.29281709389233  -15.34066196586937    0.07553447028884
