25
         -50.738813698129          0.000984578307
C           0.88655082092582   -0.37767890352640   -0.02270894533856
C           0.60431859580409    1.00259729035010   -0.01420015798696
C          -0.75498506024716    1.10782420887039    0.02147965957825
O          -1.32953834225910   -0.10324064090298    0.03538554360964
C          -0.33226781191362   -1.01915337593341    0.00860777834825
C          -0.65406383180575   -2.40995910198945    0.01603742832392
S           0.58661770074480   -3.61226671985156   -0.01628198995402
C          -0.61001095576415   -4.88787093833990    0.01399809661577
C          -1.89556023362937   -4.36232115894059    0.04713734194468
C          -1.91792748788578   -2.97507159655504    0.04823886621498
N          -0.13765054202681   -6.14001128017022    0.00213818359977
N          -0.99098580969005   -7.10028224785305    0.02381070769361
C          -0.46400691719220   -8.35271691210724    0.01115467343120
N           0.86982266449777   -8.68885634059709   -0.02286292871768
C           0.92835146596749   -9.98031995165923   -0.02331521989884
C          -1.23178999383109   -9.50684765301900    0.03184888273746
N          -0.32100876368858  -10.50580347465283    0.00930419617951
F          -0.63366655687231  -11.83908093619218    0.01849787159099
H           1.84698776651507   -0.84969999720811   -0.04823171896413
H           1.31161106075650    1.80583407761296   -0.03204468951015
H          -1.40703599720887    1.95861824823094    0.03928244575732
H          -2.76251464444313   -4.99758892906465    0.06921411505171
H          -2.81160187459748   -2.37713408438707    0.07146030088534
H           1.81751758005858  -10.57650980877960   -0.04571561311018
H          -2.28668283221459   -9.67304977333474    0.05922517191817
