27
         -49.154180043786          0.000371450611
C           0.93179216504230   -0.47082227791449   -0.01916481002105
C           0.86804437879562    0.93296120585935   -0.00063929814527
C          -0.40798850924540    1.40114252809675    0.04544241113713
S          -1.56652357422032    0.13342808441575    0.06795526327592
C          -0.30438553907592   -1.06794162604480    0.01356076827165
C          -0.61411841198324   -2.45732262863806    0.00633032311859
S           0.63820778176578   -3.65745650446165   -0.05443823364419
C          -0.54575690830855   -4.94136811768823   -0.02692146851288
C          -1.83357567500075   -4.42767378673646    0.02459646504067
C          -1.86826717151411   -3.04009453327457    0.04257348292574
N          -0.06933036800105   -6.19545461060204   -0.06982893180363
N          -0.93562029745540   -7.14543430055303   -0.02497104124631
C          -0.45133495900243   -8.40819909025625   -0.07868756936410
N           0.85727419150512   -8.80650033227976   -0.17111383279786
C           0.83420852327091  -10.10200327766151   -0.18113928928477
C          -1.26877972467595   -9.53432693303786   -0.03231452213871
N          -0.43391365210467  -10.59500604661396   -0.09311595510135
N          -0.80978558862962  -11.93236445193567   -0.15848986480358
H           1.84501405771900   -1.03699906721673   -0.05511592342538
H           1.73387063568095    1.57020849251868   -0.02105801894815
H          -0.74491412263040    2.41831835895940    0.06765277267375
H          -2.69421258802610   -5.07133360498125    0.04513352724202
H          -2.77093630588924   -2.45492934846215    0.08175841054763
H           1.69633481384678  -10.73636624908069   -0.24656861186225
H          -2.33169953247406   -9.62817209974997    0.03832018830210
H          -1.62189544177082  -12.10207457547534    0.42871022860514
H          -0.03658817761840  -12.52277520718540    0.13387352995914
