25
         -45.749006932647          0.000292985032
C           0.94636208099248   -0.47487900153150   -0.02959984748024
C           0.89709768557855    0.92932390285674   -0.03494835107008
C          -0.37453707367359    1.41101711713534   -0.00401798603688
S          -1.54617667917747    0.15627053196496    0.03257008238995
C          -0.29642754522770   -1.05851705900112    0.00531172354217
C          -0.61827066944542   -2.44514933391970    0.01804074954936
S           0.62500821760304   -3.65392201443836   -0.01657275425629
C          -0.56864487910590   -4.92936985570939    0.01980563376372
C          -1.85325711106273   -4.40562710634924    0.05789740741479
C          -1.87760930193843   -3.01787654801373    0.05532119651340
N          -0.09498636302706   -6.18424875426553    0.00099918946166
N          -0.95574974765391   -7.13778562606326    0.02977912263036
C          -0.45128782679803   -8.39752915007483    0.00325664020669
N           0.87182861771899   -8.76923633923073   -0.05258010330989
C           0.87696803446300  -10.06026735808746   -0.06046833512579
C          -1.24310335966981   -9.53587820216265    0.02826199455221
N          -0.38266400885700  -10.58476691736994   -0.01276178452738
H          -0.63433107371113  -11.56009001456916   -0.00865221537212
H           1.85392946491969   -1.05083009752618   -0.05059995914860
H           1.76954888590252    1.55721686618835   -0.06074207474216
H          -0.70065548432563    2.43193796132222   -0.00052451825127
H          -2.71918181420795   -5.04204718026888    0.08360609936712
H          -2.77595875204746   -2.42538411068939    0.08116427779442
H           1.75746409799730  -10.67090412930571   -0.09975788477168
H          -2.30587539524641   -9.64665758089072    0.07040169690652
