32
         -59.520295305021          0.000472740985
C           0.86479916250973   -0.41237129409753   -0.08912923197892
C           0.64995128345132    0.94000299275150   -0.09193986618063
C          -0.75043858118114    1.07755922456721   -0.03422894291355
N          -1.34180373810285   -0.09423040585200    0.00119899002011
N          -0.35870365817457   -1.00231096340467   -0.03230929966358
C          -0.64277401744405   -2.34625108385220   -0.00857533180065
S           0.60942346864032   -3.53639978615438   -0.05268092083812
C          -0.58705970594016   -4.81616715082454    0.00996691450666
C          -1.86901228240374   -4.29317146018154    0.06091796245375
C          -1.90196547428441   -2.90196933588942    0.05050085779928
N          -0.10803340349992   -6.06746689623928   -0.00086296072636
N          -0.96183411647511   -7.02734292494487    0.04556287504683
C          -0.44911970328185   -8.28176129302476    0.03229959216142
N           0.87608256428170   -8.65000819585937   -0.02614355965826
C           0.88771488023028   -9.93828147772758   -0.01597736750737
C          -1.23498810427838   -9.42182919201012    0.07823222155173
N          -0.37573068499216  -10.47988686813281    0.04718827223865
C          -0.68181613886949  -11.82606043460698    0.07298692493178
C           0.12360262141180  -12.93981324920754    0.04177570219581
N          -0.64151082524375  -14.05710404022440    0.08874011378705
C          -1.87645995283687  -13.65453498248057    0.14721225029554
N          -1.96695525744416  -12.29922620489362    0.14083325239138
H          -2.80524619819602  -11.74344169894464    0.17840214470670
H           1.76260334626601   -0.99511843143173   -0.12183122125207
H           1.38071754335466    1.72072386907957   -0.12961659382490
H          -1.33256655147318    1.97711253576422   -0.01764714434754
H          -2.73251353605036   -4.93166710501137    0.10355496172814
H          -2.78944311303012   -2.29764226171931    0.08366626886385
H           1.76795110919041  -10.54733638077861   -0.05169572714530
H          -2.29955780543152   -9.51240529702015    0.12815196746624
H           1.19039571682265  -13.00365307336389   -0.01100845839255
H          -2.73149884752510  -14.29715713428457    0.19498535408490
