25
         -45.746489087369          0.000868016968
H           0.78130246755044   -0.12956478915655   -0.00875730726154
C           1.85294322255808   -0.09034196748093   -0.01624661531358
S           2.64260471324672    1.42773239953565   -0.01614564044527
C           4.20168200363154    0.64277668228490   -0.03002228518486
C           4.06250847761662   -0.73384826327582   -0.03421233886602
C           2.72609863934662   -1.14247857425799   -0.02635944567506
N           5.28456074725162    1.44435246411544   -0.03502420601932
N           6.42666695904877    0.86042557160396   -0.04386113145091
C           7.52079076543502    1.65867229810304   -0.04966564433223
N           7.56615667903195    3.03630364223902   -0.04831441755300
C           8.81603226963000    3.34716056598513   -0.05591010229171
C           8.81306208324849    1.16089360844491   -0.05847014206389
N           9.63955092049096    2.24478684169734   -0.06242209224297
C          11.01990621683770    2.24429656342303   -0.07119027954779
C          11.86123086989351    1.16818548308919   -0.07695979149078
C          13.21989163890387    1.54933085729245   -0.08545469734863
C          13.39273610663503    2.89424272685903   -0.08604668560500
S          11.89715914408670    3.74475009735171   -0.07620839427509
H           4.91413538069041   -1.38928609594694   -0.04273845208474
H           2.41216044305129   -2.17144818231167   -0.02800999389168
H           9.20424163055787    4.34717318290700   -0.05722005550311
H           9.16243497282998    0.15115070498207   -0.06187948836906
H          11.53152242049365    0.14604615026044   -0.07522199146478
H          14.03134897505543    0.84458245297603   -0.09089313287266
H          14.30813225287774    3.45071557927948   -0.09166566884635
