26
         -50.733201983250          0.000710595407
C           0.87899980993728   -0.44881830774066   -0.03232362322951
C           0.67191919757896    0.90370212155449   -0.03260348226486
C          -0.72990908674002    1.04945212520840   -0.00078767241722
N          -1.32854950451889   -0.11788297876644    0.01741623068862
N          -0.35015805338577   -1.03250001057186   -0.00175540317239
C          -0.64120156271969   -2.37294491908097    0.00937603275784
S           0.60369692127980   -3.56890189374376   -0.01692457994171
C          -0.60242444339725   -4.84193690085839    0.01493650629175
C          -1.88407275744547   -4.31069930663877    0.04413806435400
C          -1.90715167749589   -2.92140978175817    0.04102791559219
N          -0.13100848731355   -6.09254383526310    0.00615621130186
N          -0.98327138890825   -7.05400788199868    0.02781770077052
C          -0.45731814642438   -8.30485714885998    0.01675902878570
N           0.88332091860684   -8.64636537456574   -0.01485477383513
C           0.93447321127901   -9.92581087778763   -0.01515734014585
C          -1.22152245167537   -9.45287944242042    0.03578784420396
N          -0.32991856588860  -10.49748620165996    0.01529093512882
C          -0.61391250999047  -11.79108800326780    0.02241975288686
N          -0.84131134973912  -12.91300014864295    0.02839603185672
H           1.77402046366487   -1.03647529782103   -0.05076252910577
H           1.40734029281426    1.68059047335857   -0.05250404097052
H          -1.30620319224464    1.95277574446365    0.00907653183821
H          -2.75161099224265   -4.94490255461722    0.06641868672299
H          -2.79015652248852   -2.30984128298829    0.06035088343468
H           1.82560550744978  -10.52161894813690   -0.03593338106329
H          -2.28118562999223   -9.59676936739638    0.06106846953151
