27
         -49.615753969178          0.000547095486
C           0.86347810140792   -0.41138317627956    0.00107183152686
C           0.64107351618926    0.94046247478914    0.01413153299022
C          -0.76017732779773    1.06923682910384    0.04044320831400
N          -1.34542465188105   -0.10701184616492    0.04468091652065
N          -0.35678687016074   -1.00826067289625    0.02016112279631
C          -0.63245408653312   -2.35522210888909    0.01400909423174
S           0.63112195491478   -3.53675681485836   -0.01851787764798
C          -0.55544075740648   -4.82536824516480   -0.01024742033330
C          -1.84155488264928   -4.31441412132350    0.01645007387136
C          -1.88617369846008   -2.92212433627340    0.03001133483637
N          -0.06752710392377   -6.07567411148968   -0.03636803995770
N          -0.92299062994325   -7.03499910147867   -0.02193906243079
C          -0.42172858891080   -8.29180324495586   -0.05700112794207
N           0.89366750515653   -8.67348406461958   -0.11641869009564
C           0.88766291705863   -9.96898062323867   -0.12448079472963
C          -1.22546176398201   -9.42850152091061   -0.02752004277758
N          -0.37599296009516  -10.47805936683638   -0.06502980322046
N          -0.73019461596948  -11.82056692387075   -0.13804690882488
H           1.76566761032605   -0.98791168079462   -0.01954010065246
H           1.36864996863628    1.72510308395354    0.00543097547724
H          -1.34836243760829    1.96491993081379    0.05696924113853
H          -2.70024196997819   -4.96059834100824    0.02361688788239
H          -2.78017035214683   -2.32676337564348    0.05020838686320
H           1.75914919475061  -10.59229279444073   -0.16784305812712
H          -2.28864661696994   -9.53511884671872    0.01853513746691
H          -1.58588286866460  -11.98992591960284    0.38279319175485
H           0.02245141464100  -12.39849108120164    0.22469999106900
