32
         -60.232042176306          0.000908439913
C           0.86773909259176   -0.37935136481580   -0.07743207378758
C           0.58180885996140    1.00015731095995   -0.07481773661180
C          -0.77670845816222    1.10235678121378   -0.01940361061651
O          -1.34796065756250   -0.11086201734030    0.01240607281036
C          -0.34792874152710   -1.02455548544415   -0.02287522473303
C          -0.66340551723497   -2.41689310523929   -0.00059004078944
S           0.58475590179723   -3.61316882525444   -0.04378429261184
C          -0.60357287151172   -4.89607544719617    0.01357377663494
C          -1.89041732253176   -4.37775584802555    0.06284860742087
C          -1.92164810013797   -2.98998180498165    0.05483479023274
N          -0.12363937739080   -6.14708370495356    0.00208964412514
N          -0.97603438032468   -7.10943222615974    0.04401060183568
C          -0.45393232669828   -8.36020611242448    0.03052648395068
N           0.88094819892663   -8.70509236432277   -0.02342288059994
C           0.91687930662636   -9.99161708610353   -0.01615152008132
C          -1.21949670880839   -9.51268762613699    0.07070239678189
N          -0.33896390007444  -10.55394169853331    0.04070272210208
C          -0.64136573787157  -11.89934362435501    0.06282756244827
C           0.16818703428513  -13.00183178352043    0.03623531863921
C          -0.70633929113323  -14.11433205314407    0.08104948887928
C          -1.96625826993978  -13.60792991155019    0.13080666248217
O          -1.93774697670026  -12.25995628398754    0.12030727221718
H           1.82880868489425   -0.84935418557416   -0.11400644064598
H           1.28670872889952    1.80514334780352   -0.10931901935598
H          -1.43040779831964    1.95172328569544    0.00194043292886
H          -2.75228811937335   -5.01901665105529    0.10244917150425
H          -2.81917198729797   -2.39839060081530    0.08765577059476
H           1.80941744740735  -10.58285714413672   -0.04976166035884
H          -2.27834270082552   -9.65319309512045    0.11637220253305
H           1.23651671590218  -13.02250217992699   -0.00883846055746
H          -0.42533430551952  -15.14685255685593    0.07638150935676
H          -2.92973642234587  -14.07341593869895    0.17487247327158
