29
         -53.805195298187          0.000511738092
C           2.93479025904301   -1.31889486904472    0.44970843906878
O           3.07628760249710    0.08611788330463    0.45080135172964
C           3.38720983428581    0.66896798740930   -0.71979148463732
S           3.51355580878531    2.39211818639692   -0.72609506940120
C           3.89901258220898    2.37071784445658   -2.44326147324984
C           3.91568993416519    1.07576110553323   -2.92422055805877
C           3.62600075152623    0.11295364668396   -1.95421669385203
N           4.09860803233012    3.56114120107364   -3.02663204994313
N           4.38161833779281    3.56267502203413   -4.28023629406610
C           4.55625866235812    4.78020278452353   -4.85271746236253
N           4.45199279831273    6.01563627698397   -4.24805814307816
C           4.68410886934990    6.88441089905517   -5.16988065925469
C           4.86464807794558    4.95397490222584   -6.18995503307796
N           4.94529527866865    6.30221221905582   -6.38940988341836
C           5.22513749848903    6.94545999410813   -7.57681516986804
C           5.31006113259076    8.27623353841740   -7.88215089635005
C           5.62515375724501    8.32813542318386   -9.26192694732313
C           5.70431798253474    7.03910712341104   -9.68432804267161
O           5.46351620666594    6.18935651245246   -8.66543990953699
H           2.67378866949169   -1.58988478467816    1.47068914999426
H           3.87025333726358   -1.81018569277117    0.16635613966317
H           2.13768340275555   -1.63403206953043   -0.23024698982119
H           4.13194781862040    0.86029698276641   -3.95486963675310
H           3.59516341879236   -0.94229965301440   -2.15691791546784
H           4.68021232064407    7.94652033457162   -5.02981113191145
H           5.02379300999549    4.24487205607154   -6.97396201181772
H           5.16907548853923    9.10483066337906   -7.22074238145383
H           5.76943479371386    9.21000928377926   -9.85081948854101
H           5.91584433339060    6.60381519816087  -10.63976975454039
