20
         -40.518910066980          0.000707694608
N           0.86971473202633   -0.05852517831985   -0.19752037990061
C           2.22472746876442    0.04612963862900   -0.10491541918601
S           2.99972724299727    1.59231812228513   -0.08908468065962
C           4.58699020526971    0.82489739461892   -0.06193197214681
C           4.45495641529139   -0.55475125031053   -0.06126181490710
C           3.13595379171676   -0.99293616227338   -0.08508303626689
N           5.63705635869665    1.64475131203477   -0.05366508713489
N           6.81197699698594    1.11863860891896   -0.03147058093596
C           7.85034375525691    1.99708213003180   -0.02951411706394
N           7.77858110865912    3.37153171425592   -0.03763538994042
C           8.99681468968024    3.80801311210567   -0.03323767235204
C           9.17835746547073    1.60376258757619   -0.01957809471767
N           9.86590213135911    2.76994150441948   -0.02291311262493
F          11.23451778489281    2.86127085385234   -0.01591436745738
H           0.32415743417939    0.76080681886027    0.00984600695136
H           0.45678629385103   -0.94223580687213    0.05327615463087
H           5.31818897376420   -1.19527148156886   -0.04392023372191
H           2.83959675810605   -2.02683401082685   -0.09131801198619
H           9.30494467250891    4.83350646050637   -0.03704338659899
H           9.64806572052303    0.64464363207676   -0.01263480398086
