25
         -50.374695065304          0.000921003068
C           0.86839614813500   -0.42452042274184   -0.03262600526771
C           0.66035784871753    0.92827485346180   -0.03137610711719
C          -0.74068113321814    1.07310169322081    0.00148824540540
N          -1.33851858688394   -0.09498346000840    0.01910307333132
N          -0.35965824454558   -1.00871424442425   -0.00175160460098
C          -0.64950292999315   -2.35062561287337    0.00841001720962
S           0.59906494587299   -3.54328692372869   -0.01986331025927
C          -0.60284408059891   -4.81988399598151    0.01188882675640
C          -1.88476941103086   -4.29294973122294    0.04243686059784
C          -1.91263962687062   -2.90277181242556    0.04053563190810
N          -0.12422407237493   -6.06997865517947    0.00219179809253
N          -0.97054025983094   -7.03520142505115    0.02357742330282
C          -0.43729123605189   -8.28553150449224    0.01226570138746
N           0.89811826179407   -8.61618318373820   -0.01926139735172
C           0.96106599065973   -9.90749409891071   -0.01954499743204
C          -1.20025430922724   -9.44245171842586    0.03155907104651
N          -0.28625069203085  -10.43735982594895    0.01069857718798
F          -0.59460717905933  -11.77078508803113    0.01928010333017
H           1.76343948033507   -1.01190952499226   -0.05229473556727
H           1.39542570322553    1.70550900303085   -0.05104531887097
H          -1.31779341161716    1.97581237150946    0.01269079378007
H          -2.75059571570187   -4.92928157315862    0.06491130639495
H          -2.79807411074298   -2.29507075598368    0.06109136126490
H           1.85215140731545  -10.50070604651772   -0.04024975452529
H          -2.25474478627699   -9.61089831738633    0.05684443999637
