25
         -49.913461802994          0.000265209033
C           0.93556733251371   -0.48444374088484   -0.03139482751791
C           0.88997937657393    0.91924003660248   -0.03347548586596
C          -0.38113042613921    1.40388313377067    0.00229858081168
S          -1.55580168028504    0.15359007335636    0.03929070288837
C          -0.30958757052620   -1.06472966751235    0.00568590119562
C          -0.63370305443051   -2.45028453641137    0.01655219902568
S           0.60578544611545   -3.66045849917227   -0.02192537597615
C          -0.59148683175458   -4.93358776293222    0.01292063157354
C          -1.87634250109392   -4.40600564509766    0.05324268982694
C          -1.89643355572661   -3.01980478668298    0.05518135379871
N          -0.12137218556144   -6.18660908941898   -0.00389900941154
N          -0.97912628091757   -7.14329783011155    0.01685916146946
C          -0.46095011293419   -8.39913790543734   -0.00252750956514
N           0.87021648474273   -8.74672307739887   -0.04185708915231
C           0.91691666979413  -10.03880458524459   -0.04887878536339
C          -1.23845040141150   -9.54672027085804    0.01428901874172
N          -0.33687245315958  -10.55316400533499   -0.01570810349117
F          -0.66189501006937  -11.88343200374686   -0.01261979845134
H           1.84138446585380   -1.06307939406466   -0.05625019535184
H           1.76370166906059    1.54516301827551   -0.06003432908994
H          -0.70379053522542    2.42594927568650    0.00936216524962
H          -2.74335485079743   -5.04093061055983    0.07936840984027
H          -2.79242385541186   -2.42402754442076    0.08325221797727
H           1.80039002934078  -10.64320935135907   -0.07666331185818
H          -2.29489016855056   -9.70232523104218    0.04345078869609
