23
         -44.671253042327          0.000485667180
C           2.22620388114546   -1.57350731248974    0.14686244336415
O           2.12654945244764   -0.16357264160166    0.14020332477443
C           2.72132855168862    0.49845020458852    1.14189729641903
S           2.58486066669397    2.21893547968686    1.13282817011224
C           3.53305571480438    2.31392703240717    2.61363270631597
C           3.90408739498627    1.05015582847002    3.03974565546442
C           3.44665258094851    0.02491950351145    2.21366201110737
N           3.73557025788363    3.53541909223551    3.11681552647428
N           4.44761063277508    3.63204986163867    4.18250866459027
C           4.59766946745111    4.88712092798277    4.67949054541403
N           4.03298763016313    6.05308373126120    4.19364203381080
C           4.42018196625903    6.99732213886491    4.96729035819328
C           5.35284293444881    5.17584966027382    5.79618360740814
N           5.24254876935374    6.53333694759660    5.98419999340090
C           5.79938350347397    7.25692295824195    6.94225515107418
N           6.26756403725493    7.90072605046718    7.76512513834502
H           1.69281647944820   -1.91045612231278   -0.73938441106779
H           1.75952208854578   -1.99668473797534    1.04088977656142
H           3.26985050124698   -1.89549770507948    0.09289355529506
H           4.48712745013589    0.90521013027079    3.93115145165180
H           3.63989048586286   -1.01637014286153    2.39689517466516
H           4.16256506965655    8.03402071888983    4.87569316502858
H           5.93473048332519    4.54906839593330    6.43846866159696
