32
         -59.539744063815          0.000679329319
C          -1.15329439494592    0.11954983395441   -0.00536934524465
N          -0.39348922784526    1.23329310291948   -0.05047107411822
C           0.84609801211460    0.82396892683773   -0.10882959417687
N           0.93106543533886   -0.52382163572689   -0.10369730737777
H           1.76066191221726   -1.09395322892717   -0.14062993916464
C          -0.35220107032330   -1.01015825240269   -0.03701627889450
C          -0.66801804058326   -2.39863178976950   -0.01128771025155
S           0.57556082238845   -3.60935030010978   -0.06451720618785
C          -0.61472218576628   -4.88744186749461    0.00585319261954
C          -1.89686339550435   -4.36043861261489    0.06583106607316
C          -1.92505965341791   -2.97227431322390    0.05611242507421
N          -0.13541293969826   -6.13714716383294   -0.00789476193956
N          -0.98877588082248   -7.09834912365564    0.04693958060615
C          -0.47375509130059   -8.35160760453893    0.03160253043988
N           0.85210902638735   -8.71721968535669   -0.03797946088059
C           0.86640948365822  -10.00552185595780   -0.02426965400825
C          -1.25637827196785   -9.49303341925716    0.08781212285724
N          -0.39507441065698  -10.54963589247699    0.05201381048104
C          -0.69908586921798  -11.89594128133980    0.08517969667607
C           0.10663202972727  -13.00933447403139    0.05228276883916
N          -0.65743122553739  -14.12702116548171    0.10957392584853
C          -1.89217614999597  -13.72485796586880    0.17568957388238
N          -1.98338125844703  -12.36963821442173    0.16463568960565
H          -2.82166011697433  -11.81411068157742    0.20624820111902
H          -2.22094148102241    0.18147607377320    0.04682951033568
H           1.69995167137275    1.46959127975955   -0.15533727070466
H          -2.76094637042578   -4.99818900634617    0.11421861642376
H          -2.82502747396444   -2.38576732142264    0.09669133996713
H           1.74764244734061  -10.61279182202622   -0.06636572486159
H          -2.32026075842731   -9.58579228464397    0.14789372576426
H           1.17306839475621  -13.07253752880198   -0.00823727657260
H          -2.74663396845650  -14.36752272593697    0.23252482777048
