32
         -59.040894496799          0.000651245802
C           0.85685871259510   -0.38423702683916   -0.08669947058485
C           0.63577262336056    0.96722072366295   -0.08799753489498
C          -0.76490516475049    1.09823964929694   -0.02940360771404
N          -1.35105598044905   -0.07645291344732    0.00480411699414
N          -0.36387764523224   -0.97980917693308   -0.03004067594628
C          -0.63944882195843   -2.32576787088382   -0.00782822929714
S           0.62252443096665   -3.50622429950617   -0.05335736511865
C          -0.56348045686157   -4.79541550951306    0.00753948087324
C          -1.84945271326519   -4.28302787064463    0.05917796101302
C          -1.89373447516821   -2.89191050203366    0.05055635999948
N          -0.07512459738111   -6.04382637569243   -0.00444973104072
N          -0.92553173495410   -7.00665700570071    0.03986893601375
C          -0.41416547460589   -8.26050175177028    0.02628230090220
N           0.91317614850565   -8.62966238827346   -0.03062664180723
C           0.92104263963435   -9.91700051552452   -0.02168962927717
C          -1.20130480881148   -9.39907372243897    0.06987946029301
N          -0.34334249327534  -10.45794001428949    0.03904971747711
C          -0.66589496428710  -11.79982486933249    0.06348644307732
C          -1.90608128325762  -12.36846499644715    0.12729887549217
C          -1.85046712246012  -13.77856487510918    0.13384193962901
C          -0.58399389056689  -14.25903557133778    0.07562592409752
S           0.58890260310505  -13.00204519712712    0.01050917236087
H           1.75701569141103   -0.96323638062018   -0.12040352277111
H           1.36310727527352    1.75122078240658   -0.12516163810990
H          -1.35106878533671    1.99517923079813   -0.01159120388234
H          -2.70720700922625   -4.92926631618328    0.10103444610062
H          -2.78618217845079   -2.29490390668098    0.08452350723470
H           1.79991714910238  -10.53092803834125   -0.05672051204461
H          -2.26390345594432   -9.49959176147812    0.11818894041849
H          -2.82275776427158  -11.81031376453659    0.16823383597852
H          -2.72332574148160  -14.40386139951653    0.18029148090080
H          -0.25461071195822  -15.27836636596316    0.06640686363305
