32
         -59.058865159426          0.000566093388
C           0.92667285553764   -0.47007131266054   -0.17662183504216
C           0.88245386763961    0.93403756668851   -0.18831268073342
C          -0.38453382831042    1.42109486905486   -0.09748954063974
S          -1.55750712876858    0.17203945015396    0.00466589820819
C          -0.31536197273730   -1.04835862936933   -0.07630118214649
C          -0.64290417813232   -2.43291122116666   -0.03552883045621
S           0.58903761157337   -3.65008189545049   -0.11257065438813
C          -0.61055424702799   -4.91732947254819   -0.00598510625892
C          -1.88938655856639   -4.38296930328759    0.08277268519790
C          -1.90395864293521   -2.99619042019568    0.06605580361040
N          -0.14476980033167   -6.17269565865564   -0.02197706154462
N          -1.00434819950043   -7.12677665967763    0.05638406406745
C          -0.49337695722489   -8.38256353838136    0.04007740975880
N           0.83105273193807   -8.74745467187235   -0.05194428832332
C           0.84762310251259  -10.03531271934142   -0.02935956093235
C          -1.27367532162652   -9.52429284735002    0.11923048588277
N          -0.41146591506524  -10.58041992086076    0.07467534058166
C          -0.70927485772959  -11.92753717358470    0.12324445257758
C           0.10267627122091  -13.03626702659410    0.08383099884292
N          -0.65317625835228  -14.15817789894030    0.16312209656996
C          -1.88889547360558  -13.76305076888561    0.24867574828892
N          -1.98885239255855  -12.40836552636621    0.22943231507554
H          -2.82983772992371  -11.85790371873671    0.28216701516757
H           1.83018061021169   -1.04947096338074   -0.23883422513449
H           1.75466934350045    1.55848805803226   -0.26101500536207
H          -0.70597347030909    2.44344921734871   -0.08394434577794
H          -2.75795672156145   -5.01207808455026    0.15612353168618
H          -2.79582818095916   -2.39650857221100    0.12532177244458
H           1.72874906345156  -10.64161439434038   -0.08383150136341
H          -2.33598235713240   -9.61934157423295    0.20023329650877
H           1.16816129692851  -13.09337933650960    0.00447978493133
H          -2.73801656215552  -14.41059585212811    0.32567311870281
