18
         -32.916199890242          0.000790409096
H           0.80984105234713   -0.05429823321946   -0.03051359910656
C           1.88141087597727   -0.01182419111153   -0.03209423694927
S           2.66604778997608    1.50908086674792   -0.04032695192352
C           4.22867375408634    0.72987827611508   -0.03881846817910
C           4.09388193288664   -0.64672381109719   -0.03206640384261
C           2.75848212799099   -1.06038097202456   -0.02829650962809
N           5.30606080447406    1.53944319433214   -0.04451265007038
N           6.45428111692421    0.97048716531886   -0.04419635861855
C           7.53575375892507    1.79139070980702   -0.05030399095633
N           7.54656388764734    3.16685370531329   -0.05590595265799
C           8.79097338267374    3.51125288966033   -0.06077150552412
C           8.84205611980054    1.32611088532885   -0.05203536936143
N           9.62787313195970    2.43226184496663   -0.05875706941299
H          10.63514223266476    2.44595804774910   -0.06173310244084
H           4.94786603025888   -1.29929280728801   -0.03011109554633
H           2.44808095112780   -2.09050893924375   -0.02303172075870
H           9.14849209723291    4.52214513913612   -0.06585081370453
H           9.22853895304658    0.32882622950916   -0.04913420131866
