29
         -53.457388572264          0.000421662155
C           1.36234619817144   -0.55983165686889   -0.98241187134317
O           2.18680912703640   -0.00694795004013    0.02204920737966
C           2.81558654173766   -0.86835666582234    0.83897645792847
S           3.82407240081398   -0.18787008371756    2.06571269182727
C           4.23152831885972   -1.79936330563203    2.64341910081503
C           3.59416878670309   -2.76512710242005    1.88784816792832
C           2.79467858065497   -2.24302412784892    0.86852960865866
N           5.06822311597835   -1.86716195210253    3.68785146326285
N           5.36032321122063   -3.03613188396665    4.13554562776488
C           6.21174044899880   -3.07491780488640    5.19153493701807
N           6.81928881460833   -2.01463349497142    5.82603655929145
C           7.53470242373158   -2.52599198773810    6.76831644343404
C           6.60219150143308   -4.25302140551109    5.80431956912329
N           7.44850557084928   -3.89772207326188    6.81487687195770
C           8.09123514371210   -4.72541923478239    7.71341325852907
C           8.95265585543885   -4.44879162392971    8.74835915491512
N           9.32333853509773   -5.60300676851850    9.35485266207729
C           8.71538940411586   -6.56203913706902    8.72144740166994
N           7.94636818075076   -6.08883784057063    7.70616981738673
H           7.37919191082644   -6.62471414721619    7.07045714890913
H           0.95840346618013    0.28772552262130   -1.53200649001295
H           0.54361526341903   -1.13937705676854   -0.54604004490978
H           1.93857044987112   -1.19676037915226   -1.65972842591652
H           3.72205250024577   -3.81327133300088    2.08917348138534
H           2.22841170172372   -2.85261420923857    0.18784351923256
H           8.13939849737908   -1.96844315764148    7.45446011847200
H           6.32871757812000   -5.26208277159491    5.57820605125579
H           9.32223704889195   -3.50360937506656    9.08756006123084
H           8.79719942342982   -7.60372699328366    8.95540745072919
