29
         -52.977850420954          0.000314956791
C           1.06657203974032   -0.99282625322681   -0.46851864597555
O           1.73795212071697   -0.05939352793503    0.35108068991209
C           2.51562339606300   -0.55432086949363    1.32904906037803
S           3.32236392808310    0.58997505718427    2.34146751374829
C           4.05031855692988   -0.71997022020031    3.26399514135399
C           3.65430015917209   -1.94681287585097    2.76699024005541
C           2.78672277761207   -1.85679779425740    1.67596751816383
N           4.82893330108144   -0.36649272851621    4.29628467417029
N           5.37778930922074   -1.31356095495924    4.97013416261164
C           6.12611738145032   -0.93453171648586    6.03586016316904
N           6.36199690587257    0.34702421696558    6.48667332504547
C           7.10068494095791    0.22199321094473    7.53403790091453
C           6.76631290492308   -1.83438351058994    6.86952477394331
N           7.38869729479274   -1.09022224846681    7.82998192993857
C           8.13594860917845   -1.55051070791563    8.89444631964885
C           8.44761807111011   -2.84178069474181    9.21198948557587
C           9.22543613946951   -2.93386181504887   10.38607858718750
C           9.49268962158425   -1.72611110503420   10.94074228683669
S           8.80152908081310   -0.42937418501972   10.04481443951151
H           0.50387442208809   -0.40217498315124   -1.18856155627254
H           0.37965598896334   -1.61021870746939    0.11812659826292
H           1.77575586165941   -1.63785467335763   -0.99556903834356
H           3.99499614460351   -2.86784865890718    3.20400712880388
H           2.37945232817388   -2.71343974240258    1.17012441075967
H           7.46757423337922    1.03298361743257    8.13272251290818
H           6.80623334818617   -2.90140672748915    6.83231204594349
H           8.13859376250713   -3.69401043276251    8.63606691335537
H           9.56817484167164   -3.86643130485362   10.79600398229210
H          10.05495252999625   -1.50528966439193   11.82542743610167
