28
         -49.402926088363          0.000737588556
C          -1.16066543214439    0.11425880932582    0.02828485267203
N          -0.39569544323188    1.22601109110944    0.01003917680490
C           0.84307189990510    0.81235481753269   -0.02096468639600
N           0.92277797184652   -0.53599229212030   -0.02414067876587
H           1.74994502269096   -1.11029831063229   -0.04517676677737
C          -0.36346381282128   -1.01761839097978    0.00742142889709
C          -0.68266891497110   -2.40628295327655    0.01451863579149
S           0.56269943160762   -3.61718114122314   -0.01666853244584
C          -0.62860243485193   -4.89620478251351    0.01292042656912
C          -1.91062211863058   -4.37043355518823    0.04466685824671
C          -1.93932315422532   -2.98078425322671    0.04554127680000
N          -0.14246462069871   -6.14507313684111    0.00156050411876
N          -0.98988663388231   -7.11169300640661    0.02365589929642
C          -0.46588070080758   -8.36186918808080    0.01222492036753
N           0.86212440156856   -8.71493074217579   -0.02066970612444
C           0.87953272699871  -10.00766379520032   -0.01866242158207
C          -1.23904257346281   -9.51476402541422    0.03389687536471
N          -0.37113543291992  -10.55426710278140    0.01399054594271
C          -0.68903572609470  -11.95397218448396    0.02501465263864
H          -2.22895744562622    0.17996101827945    0.05491357788769
H           1.70040842778005    1.45472199860585   -0.04169988486075
H          -2.77599397988502   -5.00792846637804    0.06607681239305
H          -2.84076482004829   -2.39542419057796    0.06801236709470
H           1.76725969098095  -10.60929070282828   -0.03994588588785
H          -2.30140201297961   -9.63849497636404    0.06101363875671
H          -1.76956178107394  -12.08097810221713    0.05291470233937
H          -0.25123861776676  -12.43565045986094    0.90191020739039
H          -0.29656391725608  -12.43938197608213   -0.87105879653185
