24
         -43.556145517211          0.000646937339
C           1.37502720014126    0.02205036479235    0.91147360372452
O           2.45749015791619   -0.07352720447365    0.01375851433606
C           2.93199051232542    1.07042024941447   -0.49253224090674
S           2.29859583432094    2.63158098379759   -0.08258669497213
C           3.45858300842082    3.40511775742155   -1.14951182770038
C           4.26454633301985    2.46166843480206   -1.75883582382977
C           3.97105465830721    1.14909503339495   -1.39081084122138
N           3.40139097696031    4.74243158636342   -1.21030867863939
N           4.23140018036838    5.33137666365888   -1.99626379827240
C           4.16293812618416    6.68499723472028   -2.03752518265985
N           3.32224531817482    7.50760374882097   -1.33353507499149
C           3.62891361245974    8.71649160953826   -1.68820688436728
C           4.99530869361701    7.46035679103719   -2.83777825553818
N           4.64307326580349    8.74398034710774   -2.59664444546873
N           5.15579699645571    9.86916982019332   -3.23635497982933
H           1.13009607681553   -0.99761776861425    1.20131613759059
H           0.51108113271910    0.49316576239285    0.43286263071588
H           1.65015278261260    0.60659113656691    1.79472992358285
H           5.03725470135899    2.74884873701344   -2.44848565081505
H           4.48400230304835    0.27846806295078   -1.75525962125137
H           3.15739402250800    9.60760169479077   -1.32233066732964
H           5.77116152126118    7.18498340026554   -3.52033880920798
H           6.15005038459771    9.75192005839767   -3.41195214251899
H           4.99770220060324   10.69211549564673   -2.66170919042984
