25
         -43.324020109410          0.000871117307
C           1.00768812065807   -0.24330644195875    0.34019810393128
O           2.37203819616476   -0.17902792401728   -0.00956552752253
C           2.90879296781960    1.03916913158472   -0.14303428959027
S           2.01544801432945    2.50522578015303    0.09241173281610
C           3.44507830078660    3.45992487054544   -0.27404062898547
C           4.51986353084796    2.63674871152201   -0.55339570614055
C           4.22156759312078    1.27666768918118   -0.48047883413989
N           3.28377102831529    4.78855270799307   -0.23087514549259
N           4.30499297779895    5.52190950993962   -0.49673494009243
C           4.10325207536904    6.86391411928640   -0.44541443073278
N           2.93922343625431    7.52805855040164   -0.14000026792699
C           3.22483044177445    8.78735463141803   -0.21872177070501
C           5.09732362519373    7.79404365662372   -0.71001683908726
N           4.52541608685424    9.01459680166707   -0.56259764206968
C           5.15248586472516   10.29442643109976   -0.73322049167267
H           0.75765881608978   -1.30080251656723    0.39596782734725
H           0.38733042449746    0.24875750917237   -0.41505573558262
H           0.82981001283892    0.23505180457702    1.30817369682927
H           5.48424783726468    3.04193767300646   -0.80098267400356
H           4.92162902087085    0.48266303476748   -0.66356329955297
H           2.53191577043207    9.58602817935445   -0.03794734221212
H           6.12340426479419    7.65767165817886   -0.98057199864386
H           6.19622900498606   10.15338073820650   -1.00765253002259
H           5.10308259563815   10.86863971729191    0.19447729150318
H           4.65116999257541   10.86121397657250   -1.52081855825124
