32
         -59.868173510527          0.000624209204
C           0.86536791836581   -0.43873706006902   -0.09074833296569
C           0.65807341484647    0.91497236331768   -0.09369409102468
C          -0.74141720241593    1.05998664637272   -0.03496406691811
N          -1.33894670925893   -0.10882926553026    0.00060055389284
N          -0.36095820848191   -1.02184310968964   -0.03322924246643
C          -0.65030669924125   -2.36502391923302   -0.00940773777257
S           0.59968290066084   -3.55769797540622   -0.05333436985272
C          -0.59909811915100   -4.83530158553284    0.00868259129158
C          -1.87986997616412   -4.31037142860164    0.05959527435588
C          -1.91011822474366   -2.91855201694281    0.04943913836508
N          -0.11671199671904   -6.08526118410255   -0.00225621277846
N          -0.96323177300384   -7.05135410606009    0.04132144756828
C          -0.43624690092464   -8.29984887110102    0.02796618176628
N           0.89904269713393   -8.64042222197807   -0.02626018468605
C           0.93893518867528   -9.92700260404547   -0.01910287170615
C          -1.19882073470148   -9.45476992065933    0.06829580009605
N          -0.31498139416028  -10.49301622409743    0.03791730750972
C          -0.61677998260164  -11.83908788786913    0.05954691135827
C           0.19192019974384  -12.94202447759880    0.03176899467853
C          -0.68428420521535  -14.05357307140422    0.07643839434775
C          -1.94333438397938  -13.54538919519009    0.12729221013625
O          -1.91301381142856  -12.19767351875772    0.11750382296262
H           1.76028283712389   -1.02591220606496   -0.12391940703643
H           1.39342939083419    1.69134126602626   -0.13193272076326
H          -1.31873472852064    1.96258713596059   -0.01814709513587
H          -2.74463346228877   -4.94714248911366    0.10207029210743
H          -2.79695257995861   -2.31324803804356    0.08262780147356
H           1.83349685065894  -10.51527040667477   -0.05292511614168
H          -2.25726124796220   -9.59803531062648    0.11410774007535
H           1.26017699103367  -12.96380363808941   -0.01402036769748
H          -0.40513687683822  -15.08648430138404    0.07095359758378
H          -2.90766917131725  -14.00909137781095    0.17163375737635
