22
         -39.758014750996          0.000745421062
N           0.94200989352566   -0.04805162093854   -0.25768414838483
C           2.29991460341037    0.06896478826115   -0.13964638504325
S           3.06478754699455    1.62263695307018   -0.17740197780144
C           4.65496384450281    0.87239300649075   -0.07940299838056
C           4.53464964222306   -0.50420432246321   -0.01886957287971
C           3.21691802428582   -0.95635077169984   -0.05238969239042
N           5.70305335146161    1.70213180833392   -0.09156909517593
N           6.87501570860200    1.17584559960285   -0.00485130727444
C           7.92225675202196    2.03815956872771   -0.03406361134500
N           7.88632092642904    3.40530871755892   -0.12998758344295
C           9.12354614346566    3.79533142505645   -0.11849635818406
C           9.24641610408012    1.62117436808566    0.03920531865383
N           9.99011737078153    2.75119912212449   -0.01202587064482
N          11.38127513150056    2.81974304745983   -0.05598275763699
H           0.40337377772002    0.78457815703749   -0.08422818510611
H           0.53574166044618   -0.90576688467398    0.08057504791097
H           5.40209919724971   -1.13596338580699    0.04540026362937
H           2.93096920308568   -1.99295019955437   -0.01901119408842
H           9.45262252635034    4.81430468495597   -0.17860198889768
H           9.67299326106373    0.64365600166501    0.11916849423947
H          11.78499201424560    2.05426363223062    0.47706185329561
H          11.69386331655394    3.70981630447593    0.32222174894735
