29
         -48.650170890204          0.000162802814
C           0.88364223619465   -0.46037005990844   -0.01641380749417
C           0.79024260544807    0.94199512566882   -0.01431595342675
C          -0.49554960685619    1.38391377483227    0.00796216110193
S          -1.62796500111219    0.09201303580818    0.02585571218032
C          -0.34011562003455   -1.08316936751722    0.00404386462828
C          -0.62018877823694   -2.47820652998452    0.00941521052844
S           0.66239742022833   -3.65002162015156   -0.00838278024319
C          -0.49104273188103   -4.96273519813470    0.01449155166175
C          -1.79113470580801   -4.47915304795203    0.03292983407948
C          -1.85856598193654   -3.09195756042941    0.02973398880325
N           0.01817931349702   -6.20346984938258    0.00613090916193
N          -0.83079866891648   -7.18087204948372    0.04065515417231
C          -0.30845274197579   -8.42011026254249    0.02649227814560
C           0.99522995821567   -8.93151554008186   -0.01910796992420
C           0.88891045278082  -10.31671785324471   -0.00733577637739
C          -0.45914428883042  -10.62654129162829    0.04427163442193
N          -1.17457205704141   -9.48740214363511    0.06484421295488
C          -2.60359740899563   -9.36807650566979    0.11391629736338
H           1.80934835945047   -1.00709636837782   -0.03248773490990
H           1.64302165466469    1.59686673028942   -0.02848850661269
H          -0.85415500351440    2.39387000091927    0.01455752746288
H          -2.63901788194959   -5.13972422673970    0.04710701111964
H          -2.77607209680871   -2.52898835861778    0.04241763038083
H           1.88596502287333   -8.33754902505130   -0.05499587852464
H           1.69451197983692  -11.02405505700046   -0.03289736839664
H          -0.93685920755262  -11.58748137652274    0.06751866130701
H          -3.04895297683874  -10.35950185305263    0.17285831563887
H          -2.96914189816245   -8.85746554899101   -0.77880580239022
H          -2.89933234673790   -8.78251797341865    0.98571962318710
