23
         -44.039233064554          0.000567714650
C           1.74986037075460   -1.01917328100917   -1.01798158317816
O           2.42020909199500   -0.07291744361390   -0.21169451594825
C           3.01950733788271   -0.53343863923061    0.89882133318489
S           3.81393329887360    0.63360586751267    1.89660269877524
C           4.28783369571434   -0.63334453838956    3.02117785487830
C           3.82993109254177   -1.86519733150449    2.59514142908611
C           3.11313893639067   -1.81078185429934    1.39726130934909
N           4.99228581467825   -0.25338692567378    4.09652637285521
N           5.34039400686316   -1.18267256750819    4.92184982917405
C           6.04293514423490   -0.78487626745174    6.00235649390731
C           6.52163527597734    0.43400850117153    6.49112290185696
C           7.19062756395915    0.18072489227996    7.68776507151955
C           7.12469879430921   -1.17633634141119    7.93254081159395
N           6.43833865695988   -1.72189762461252    6.91462353777109
F           6.17244084580740   -3.05798844618860    6.82105205621594
H           1.33474897941293   -0.45523747040756   -1.85045009241965
H           0.94253681850040   -1.50710313884489   -0.46415959025549
H           2.44209169955454   -1.77724909462288   -1.39558245588625
H           4.02176529673375   -2.76316777446205    3.15376714033059
H           2.68535874761542   -2.67553394301752    0.92348185964057
H           6.38043865821961    1.37778103618506    6.00518417700950
H           7.67407871544900    0.90304531436916    8.31515722866203
H           7.50805115757231   -1.77080292927071    8.73664613187730
