26
         -49.640429615444          0.000201952868
C           0.88655063457926   -0.44045522200713   -0.01174691931012
C           0.80612591373700    0.96167145851278   -0.03098564652197
C          -0.47679439504393    1.41478093322327   -0.02729980767893
S          -1.62085946061542    0.13544182765351    0.00017197963794
C          -0.34422991218921   -1.05131967264187    0.00665982649600
C          -0.63414647331636   -2.44388272761986    0.02574800273267
S           0.63952408722872   -3.62136813099229    0.01809014428192
C          -0.52372090622535   -4.92640928448597    0.04485276620461
C          -1.82238263710869   -4.43473035887566    0.05965600183119
C          -1.87930552958975   -3.04876743864520    0.04844372539345
N          -0.02079939682984   -6.16678283038097    0.03862977968743
N          -0.86456285873998   -7.14524208468072    0.06336706169620
C          -0.32607780722076   -8.38009841496980    0.04434592706819
C           0.97387549037307   -8.89531556506397   -0.00571410853243
C           0.88168771594844  -10.28525762284716   -0.00677326143667
C          -0.45720932735462  -10.62205754729247    0.04262443932410
N          -1.14827034182052   -9.47092349258792    0.07171076129190
F          -2.51076779089481   -9.41648039395806    0.12342695355604
H           1.80712968288862   -0.99597198528745   -0.01119580763750
H           1.66457885518259    1.60879499832034   -0.04709767650307
H          -0.82493307253242    2.42835912770033   -0.03938142440501
H          -2.67307182303459   -5.09163928315571    0.07646695105116
H          -2.79205516690551   -2.47839222241256    0.05607584088482
H           1.85998358483075   -8.29462657888300   -0.03743127661718
H           1.69711186451656  -10.98025310540379   -0.03988355379465
H          -0.94673092986314  -11.57454438321803    0.05806932129962
