25
         -43.282899891564          0.000778575270
C           1.44170629830096   -0.49810465324610   -1.11412535937352
O           2.51349282056948   -0.07677182011101   -0.29844061372207
C           3.08464339111895   -1.01241661936841    0.48338913765613
S           4.38468673280392   -0.49298248702889    1.49903499565714
C           4.56156584629843   -2.12529891108931    2.13227659309352
C           3.64187124750083   -2.97480461589122    1.55299901017667
C           2.80567768010270   -2.34804150625995    0.62180045020457
N           5.51006232348377   -2.30578597202323    3.06598971843339
N           5.66330401466710   -3.50717768892524    3.51846308965640
C           6.59702230621719   -3.68915471542441    4.47081027561658
C           7.50283360845635   -2.88122524424599    5.16884343989636
C           8.19983833042921   -3.70916142997264    6.03812163695216
C           7.71542737603006   -4.99882197060626    5.87581096768474
N           6.75870376114881   -4.97505647570046    4.93445281824330
N           5.98155875687237   -6.04883548280836    4.51596217873661
H           1.11403737805301    0.38849592940695   -1.65292246108506
H           0.61653493840690   -0.88823935735972   -0.51084869833725
H           1.76457162998379   -1.26338308695676   -1.82621447580705
H           3.58377615729288   -4.01672871558117    1.81060100680498
H           2.03320598565638   -2.86406986077302    0.08108934558241
H           7.60912526110734   -1.82398003562665    5.03503709954391
H           8.97376472096691   -3.41774423736208    6.72039167153915
H           7.99928540029283   -5.91143814780130    6.36146379960787
H           6.54950754534914   -6.73525024660311    4.02070886135859
H           5.28892648889065   -5.65944264864170    3.87510551188086
