21
         -36.051910591390          0.000838828151
H           0.97494119916765   -0.35887353384325   -0.05759232506122
C           2.03996216752958   -0.24674879087987   -0.00929902846920
S           2.72753722385437    1.31995626309552   -0.10762106440575
C           4.33510806332444    0.65111327848357    0.03444324007971
C           4.28619467973832   -0.72510418099637    0.15272519208406
C           2.98032828235263   -1.22647261300428    0.12786574068670
N           5.35615822399497    1.53105966367468    0.02900920193613
N           6.54487649012267    1.03095498840876    0.09182033840347
C           7.57899964471309    1.88837269978508    0.10323947615406
C           7.74599632015778    3.27974605602528    0.06550458695791
C           9.11033334220179    3.52571306159958    0.09109218838315
C           9.76191414498466    2.30089013192997    0.15456582490177
N           8.83710442136052    1.33028579113145    0.15871598397247
N           9.06631711294408   -0.03419149647101    0.27625375021271
H           5.17209150658212   -1.32449470415048    0.25835826129490
H           2.73865636973971   -2.27171152657085    0.20764643154475
H           6.94655199990901    3.99144855939602    0.02694854025344
H           9.59118319765070    4.48366257546969    0.06910142422583
H          10.80958627142061    2.07593412969768    0.18662800093556
H           9.58252639896713   -0.38819359510240   -0.52834221174431
H           8.14545293928442   -0.47348675767875    0.31223644765386
