26
         -45.474996959002          0.000398886870
H           0.94723689007903   -0.06709652448268   -0.09710887703076
C           2.01816844695668   -0.01621428080187   -0.09562244667565
S           2.78968632592041    1.51247177156856   -0.10488919624387
C           4.36230872166264    0.74822723651173   -0.09710876162205
C           4.23759411138930   -0.62934271407938   -0.08760587617473
C           2.90562921644484   -1.05447987830642   -0.08679847998610
N           5.42312976992580    1.57573394500100   -0.09918983736265
N           6.59349160248957    1.02883352887038   -0.09715613349473
C           7.63521684443300    1.88200564527449   -0.09565477675862
C           7.70068178643410    3.27683059984267   -0.09203132362203
C           9.04715262016097    3.63296371931427   -0.08869027664007
C           9.78086020168992    2.46773941162684   -0.09041276231522
N           8.93854998417614    1.40281255578591   -0.09471753257058
C           9.34056737810627    0.08127413773797   -0.09848041334993
C           8.57320005824204   -1.04638853629227   -0.10916878372528
C           9.34487740650969   -2.22775758828956   -0.10990157293186
C          10.67973939798089   -1.99103722443173   -0.10014278037093
S          11.04008622770409   -0.30875439373929   -0.08939004217828
H           5.08891135874115   -1.28503219371454   -0.08089203820721
H           2.60641746149315   -2.08777364586396   -0.07999699643489
H           6.84628408242955    3.92298989226310   -0.09173088145968
H           9.44894837172269    4.62689082724559   -0.08534479067820
H          10.84481220410559    2.32940857791965   -0.08888723903828
H           7.50134011398770   -1.00823071086289   -0.11626508839954
H           8.91732747406304   -3.21416241633039   -0.11759615758802
H          11.48743194315172   -2.69507174176719   -0.09860693514086
