26
         -45.939656246329          0.000479328802
C           0.82661518984366   -0.37479420595190   -0.02852856969843
C           0.58068037448756    0.97296498074028   -0.03298657493019
C          -0.82249485495933    1.07763278181613   -0.00508237437750
N          -1.38724549571767   -0.10843977527902    0.01443570143359
N          -0.38299782150248   -0.99258481034586    0.00039800316244
C          -0.63542477758193   -2.34391324446657    0.01419312137438
S           0.65162767589998   -3.50026619448013   -0.00266044650001
C          -0.50913993625672   -4.81377466073028    0.02662676849389
C          -1.80475288674094   -4.32764608390195    0.04803955802636
C          -1.87646202974814   -2.93599454612483    0.04100165857036
N           0.00630998205148   -6.05193604098395    0.02310751478338
N          -0.83101273426968   -7.03741746931514    0.04260266071762
C          -0.29179604513690   -8.27147560806510    0.03745572825182
C           1.01288284632262   -8.77499619157061    0.01549717365308
C           0.91618523798329  -10.16409216496799    0.02170486024221
C          -0.42644007569093  -10.48839978413206    0.04704188498046
N          -1.14276228016353   -9.34676966631241    0.05642158131561
H          -2.14565598874716   -9.26399558236302    0.07414149783426
H           1.73849088538202   -0.93621005439382   -0.04317659958915
H           1.29451828635155    1.76990377554848   -0.05314822441079
H          -1.42608383903652    1.96307384919442    0.00098092382709
H          -2.65245121742006   -4.98784175037439    0.06764041061898
H          -2.78249651064853   -2.35905252020798    0.05429070921604
H           1.90223878901337   -8.17843982178476   -0.00251420413040
H           1.73042231095790  -10.86168803291626    0.00916283271382
H          -0.89813508467279  -11.45168717863109    0.05854440442117
