26
         -50.120961638741          0.000235530249
C          -1.22187978646647    0.10412996781038    0.01262070008991
N          -0.49490481142870    1.24005805234114   -0.00945897511637
C           0.75758820151702    0.86879028329149   -0.02925185461762
N           0.88334183841334   -0.47604898827481   -0.02110229210711
H           1.73127443183174   -1.01960546642517   -0.03230952016087
C          -0.38621721487436   -1.00090324293611    0.00606008154929
C          -0.66188285393884   -2.39743904662319    0.02090254951853
S           0.61993065976145   -3.56971796908098    0.00176586384254
C          -0.53276987928180   -4.88345073550013    0.03179811783787
C          -1.83207216683729   -4.39763349612234    0.05577744635882
C          -1.90128552937416   -3.01072002053012    0.04963885660334
N          -0.01732227518434   -6.11830484607815    0.02600605207689
N          -0.85225993196873   -7.10440664264380    0.04575799893531
C          -0.30455257905043   -8.33498504548279    0.03729440353026
C           0.99924786869499   -8.84222286192172    0.01171030491299
C           0.91566470293623  -10.23266093840673    0.01530857412384
C          -0.42178263041570  -10.57762868568824    0.04269527397532
N          -1.12037736932290   -9.43089511226618    0.05540580072023
F          -2.48368907341999   -9.38433284969327    0.08231605984319
H          -2.29194623300957    0.13356151604607    0.03159641642724
H           1.59284179040448    1.53954517381029   -0.04963658910644
H          -2.67747268871312   -5.06127769530637    0.07656726256191
H          -2.81973162715011   -2.45249538624194    0.06524554369559
H           1.88256538850372   -8.23682535273823   -0.00689793391571
H           1.73585583174680  -10.92259301180379   -0.00033578021295
H          -0.90551406337325  -11.53311759953532    0.05360563863389
