20
         -37.169090962407          0.000947583085
H           0.97726808687842   -0.12368620026853    0.03590548751202
C           2.04695430659255   -0.04858083212750    0.03266955409118
S           2.78184079433670    1.49530750753002    0.03420188721334
C           4.36898618369623    0.76354229851782    0.02692128995060
C           4.27851592300333   -0.61859302573884    0.02389071539692
C           2.95704519382087   -1.07015305174278    0.02717740821997
N           5.41761456840574    1.60334477984581    0.02579257284677
N           6.58958051843664    1.06574815134781    0.01819514342783
C           7.63161332959334    1.92162552040477    0.01804189441401
C           7.77263685838347    3.30171450106064    0.02653794301327
C           9.14649073486259    3.58808961476310    0.02141353771941
C           9.82660856753423    2.39928421635735    0.00975213682735
N           8.91354235252633    1.37819336924418    0.00772098602697
C           9.19773134818074    0.08432886747698   -0.00277646708734
N           9.46736753699425   -1.02804363821242   -0.01185517455474
H           5.15162614002582   -1.24552562352192    0.01955764654291
H           2.67747742587323   -2.10873728437214    0.02560835025316
H           6.96003184720371    3.99956788598713    0.03559474040524
H           9.59082254890713    4.56389696864638    0.02572298982673
H          10.87972573474459    2.19591597480216    0.00276735795439
