27
         -50.827756987662          0.000644392781
C           0.84127304132106   -0.33474185804927   -0.02355243260007
C           0.51746266649177    1.03587435370076   -0.02431802155861
C          -0.84482808079342    1.09992185132418    0.00288412581980
O          -1.38273565112064   -0.12753754470608    0.02014801694782
C          -0.35792572684365   -1.01341790082924    0.00399593104616
C          -0.63665107911319   -2.41253398087358    0.01678000734825
S           0.64276850913725   -3.57468798520843   -0.00483689012143
C          -0.51373272854379   -4.88831251727272    0.02578921456951
C          -1.81631739756834   -4.40430454474226    0.05145386863804
C          -1.88150237045171   -3.01908760161663    0.04631083252777
N          -0.00955353532602   -6.12694885661814    0.02037302800384
N          -0.85584843055204   -7.10494732802266    0.04249134371081
C          -0.31904776776715   -8.34081387194562    0.03530215858471
C           0.97052223680377   -8.85306849216019    0.00771245749664
C           0.87206039397151  -10.25280166691492    0.01459053303340
C          -0.45658635142439  -10.58382044318736    0.04591195274656
N          -1.19046856168370   -9.42659202147443    0.05874317950783
C          -2.51182610149081   -9.34842991909653    0.08875977503758
N          -3.65548385220529   -9.30774208073708    0.11480702483212
H           1.81572326498098   -0.77767657961029   -0.04080623805431
H           1.19999311342695    1.86024018733179   -0.04225880931444
H          -1.52185068911506    1.93109077505334    0.01212930459229
H          -2.66169816814602   -5.06828711134942    0.07264701435884
H          -2.79382331526784   -2.45010752919817    0.06307186754747
H           1.86264753566815   -8.26070254322765   -0.01458632991849
H           1.68990415445030  -10.94601032830530   -0.00171668621776
H          -0.93908510883840  -11.54157446226435    0.06006377143567
