28
         -49.399110096151          0.000666245751
N           0.96994883635743   -0.10543314877631   -0.16782265929228
C           2.32500637891643    0.02626529158446   -0.07602035216164
S           3.06729365548985    1.59013857376193   -0.06415280419904
C           4.67245003634200    0.86014102773887   -0.03414465272152
C           4.57078968439208   -0.52129246913179   -0.03110056785655
C           3.25880467405098   -0.98848774357414   -0.05391721465867
N           5.69150011827817    1.71879170065691   -0.01962510015745
N           6.89807359066064    1.24539285010329    0.00637176376824
C           7.88742581533699    2.16817238098647    0.02277578709577
C           7.87683926290743    3.56329778578241    0.02445495429230
C           9.20421513038774    3.98705198089401    0.04765737758156
C          10.00055094695947    2.86219879998778    0.05944354845466
N           9.21024511163585    1.75971418501592    0.04488215689102
C           9.65453247518690    0.45044177715796    0.04984968611398
C          10.91099062937195   -0.10935707257479    0.06900547323677
N          10.79988448223414   -1.46069179699837    0.06537752256228
C           9.52192545852723   -1.72261552960032    0.04459804691276
N           8.77547386787733   -0.59437656303329    0.03440131244919
H           7.77141057001403   -0.40985832943975    0.01817350867150
H           0.41408381758160    0.70705682381963    0.04024052629121
H           0.57706928209784   -0.98930248984133    0.11163187219856
H           5.43505459872554   -1.16121681999850   -0.01219309464365
H           2.98894072086806   -2.02953064859567   -0.05751726997968
H           6.99216570870732    4.16682045648478    0.01076434612816
H           9.55179751853359    5.00122834153411    0.05510696567107
H          11.06836214343365    2.77570513109663    0.07700286615295
H          11.87069174112500    0.36432900359922    0.08480194473341
H           9.10130374400076   -2.70756349864011    0.03640405646510
