26
         -45.478247123229          0.000188156911
C           0.89251945084318   -0.44435941014582   -0.01731735204911
C           0.81812115013099    0.95872718796167   -0.03589739950861
C          -0.46199468436588    1.41785209705666   -0.02807579170005
S          -1.61172719941669    0.14209024645388    0.00262896519758
C          -0.33997920294999   -1.05016565296869    0.00476489019128
C          -0.63668703839814   -2.44160321595587    0.02415653531958
S           0.63249031552641   -3.62648978759790    0.01310849783645
C          -0.53542298220468   -4.92714986932377    0.04168504866261
C          -1.83040990692040   -4.42900052155002    0.05958806600657
C          -1.88238703135972   -3.04149138451225    0.04933651777746
N          -0.03413947217466   -6.16970722256826    0.03303080327715
N          -0.88021918261176   -7.14903587362464    0.05986479316718
C          -0.34606056367524   -8.38539316184403    0.03774410620364
C           0.95694417127868   -8.89068921596965   -0.01574368176925
C           0.85815320259885  -10.27979861099017   -0.01800729424391
C          -0.48388036115766  -10.60245519782485    0.03380865535917
N          -1.19816397234794   -9.45939705907944    0.06677345116088
H          -2.20025952546309   -9.37514877941503    0.10673319187545
H           1.81064224615513   -1.00387938294886   -0.01985294504724
H           1.67966271765250    1.60182992605379   -0.05455240900854
H          -0.80660752595340    2.43261128794692   -0.03874949393235
H          -2.68559233874449   -5.07995211434695    0.07777885638663
H          -2.79344399510358   -2.46816012861045    0.05936417519162
H           1.84651769424985   -8.29510169902563   -0.04854329322747
H           1.67110227310123  -10.97820547142923   -0.05348707817826
H          -0.95690823868933  -11.56505698574159    0.04821018505181
