26
         -45.958870052916          0.000438999851
C          -1.22008117141845    0.10610984913262    0.01206065277526
N          -0.48696340143876    1.23921717085202   -0.01121099490341
C           0.76312501979827    0.86113864175867   -0.03235700974012
N           0.88131625031617   -0.48479898292422   -0.02386206538319
H           1.72555114418214   -1.03396561423106   -0.03582679621406
C          -0.39081368897151   -1.00267267964778    0.00490893045105
C          -0.67228095427537   -2.39883466880783    0.02048340844847
S           0.60703953366197   -3.57620456465358    0.00143513486126
C          -0.54831023215477   -4.88793017686608    0.03214254488722
C          -1.84457686891734   -4.39772740531245    0.05628734106309
C          -1.91113467236606   -3.00906625832808    0.04972436976400
N          -0.03106011838651   -6.12353365226900    0.02643177542202
N          -0.86405736841280   -7.11399355869319    0.04592691445250
C          -0.31313234293347   -8.34309443677627    0.03748227026245
C           0.99734480959707   -8.83079603929003    0.01237433259535
C           0.91759228282303  -10.22105409963605    0.01549677835397
C          -0.42067975122798  -10.56169154370098    0.04195761286673
N          -1.15102311569665   -9.42845505901053    0.05520116001689
H          -2.15482424825267   -9.35814004869705    0.07438948938482
H          -2.28998748391651    0.14115611457341    0.03231482403986
H           1.60229301190907    1.52696489059484   -0.05397381749195
H          -2.69347746927338   -5.05682948863643    0.07755164136339
H          -2.82898765177410   -2.44956031219033    0.06537550903323
H           1.87940287316471   -8.22338537313119   -0.00552019829072
H           1.74044753396139  -10.90843976531800    0.00006663162220
H          -0.88067191999758  -11.53061293879132    0.05177956035962
