33
         -59.619950360001          0.000209318621
C           0.79956674127652   -0.38782583474496   -0.00551996419225
C           0.48870227426882    0.98614017857262   -0.02796131531642
C          -0.87264174637834    1.06358873354335   -0.02999103604019
O          -1.42274346486993   -0.15936213152972   -0.01010386338154
C          -0.40590211092328   -1.05452203818204    0.00464730073905
C          -0.69930974424407   -2.45102109705094    0.02342860983893
S           0.56798366725825   -3.62829433841125    0.03260871688754
C          -0.60075698575669   -4.93318228843429    0.04628389393614
C          -1.89678801861976   -4.43266733733660    0.04486300382922
C          -1.94791097396731   -3.04511193350007    0.03159986386653
N          -0.08772576624528   -6.16773767996062    0.04388607304310
N          -0.90781213691072   -7.17116451933402    0.06066866518247
C          -0.33537546756312   -8.39237599219904    0.04090786790758
C           0.99925757118805   -8.80761012661308    0.00034709080110
C           0.99878396015303  -10.19842012034823   -0.00970408350414
C          -0.31718097006131  -10.61532536341477    0.02421364840294
N          -1.12654463334951   -9.53009251349472    0.05505151151171
C          -2.50871054051308   -9.55726147995806    0.09311965075262
C          -3.41997858119614  -10.58831255882343    0.10313399019015
N          -4.67427268198897  -10.07741217611369    0.14617577222055
C          -4.54110171974649   -8.77957803766656    0.16170636139911
N          -3.24150142288382   -8.40533418191248    0.13117368282366
H          -2.77212234109188   -7.50039187068471    0.12851289453295
H           1.77024711288532   -0.83932471197919    0.00225862303159
H           1.17954079802201    1.80371714368693   -0.04112977128009
H          -1.54225216938986    1.90063105268534   -0.04442026495190
H          -2.76362469731253   -5.06930796375034    0.05017598565346
H          -2.85617420088304   -2.46933121949000    0.02717412190653
H           1.84143792732363   -8.14622933069209   -0.01867019870856
H           1.85758908630798  -10.83932622409499   -0.03868932071331
H          -0.72212617254765  -11.60738191401045    0.02817864561449
H          -3.25635100747162  -11.64589584246044    0.08216879370323
H          -5.35445158476964   -8.08365628229793    0.19512505031353
