21
         -36.081820370986          0.000802396912
N           1.02927513342214   -0.16639144765530   -0.19101123812940
C           2.38609360218009   -0.01944627910680   -0.08929877326196
S           3.10839631184167    1.55586750568146   -0.07478916074096
C           4.72043687681099    0.84670173053456   -0.03637723904008
C           4.63878553926087   -0.53341587902771   -0.03214787538137
C           3.33214386662504   -1.01979387335684   -0.06100575280246
N           5.74308293506572    1.70762390519886   -0.02252298433771
N           6.93850894080734    1.21140654548207    0.00850780782627
C           7.94643899767055    2.11025980662708    0.01780824714678
C           8.02168659474396    3.50402450410882    0.00675392591466
C           9.37468821524512    3.84290731108998    0.02486997690798
C          10.09818953142336    2.66913685717950    0.04619157090032
N           9.23117685505893    1.63357113191918    0.04261766116103
H           9.46199776357250    0.65425828567272    0.05316970882559
H           0.47212229731283    0.63986487675647    0.03779909097529
H           0.65284723941188   -1.05116321261200    0.11100849938383
H           5.52172878015792   -1.14606457793253   -0.00801785881068
H           3.07582618084737   -2.06460090306995   -0.06518262917578
H           7.18043484720448    4.16681892388339   -0.01164926252218
H           9.78448535850553    4.83414254830521    0.02240858970467
H          11.15976413283169    2.51623224032188    0.06315769545612
