24
         -39.253285024452          0.000465937078
N           0.91183121981805   -0.13941504454148   -0.12618980379406
C           2.26963601483665    0.01701221881762   -0.03391423132859
S           2.98050813572189    1.59766127620477   -0.01903581339471
C           4.59832187508527    0.89974380139251    0.00443363897168
C           4.52644851791765   -0.48007290306716    0.00398427684270
C           3.22236038959859   -0.97611610914283   -0.01688159550171
N           5.61506995702694    1.76898533450110    0.01730294331938
N           6.81353089872187    1.27935420168002    0.04229015794927
C           7.81646009256829    2.18251433178514    0.05635308165742
C           7.87180377636533    3.57938977969653    0.05735079616101
C           9.21752475653317    3.93397482020601    0.07937219694158
C           9.95159935753571    2.76370109790068    0.09086280493993
N           9.10724145171723    1.71292743008118    0.07746028997082
C           9.46364561135501    0.32326149067965    0.08137978448211
H           0.35298767020405    0.66531176903596    0.10655439081388
H           0.54317894619371   -1.02140558785705    0.19239680057653
H           5.41352321440656   -1.08716411151180    0.01855502608266
H           2.97395326123771   -2.02279514122456   -0.02272790254377
H           7.01922870650761    4.22791062433338    0.04413317701228
H           9.61995650666163    4.92816195732483    0.08632618962254
H          11.01577815821494    2.62429778616166    0.10760399658084
H          10.54773491382934    0.22685049651600    0.10423126380857
H           9.07305215581442   -0.16695712396669   -0.81208650438159
H           9.03514441212871   -0.17112239500556    0.95489503521113
