33
         -58.769390271545          0.000426237307
C           0.84067783219034   -0.40510167926040   -0.14015758443650
C           0.61677710663429    0.94619334254700   -0.14620511007734
C          -0.78281294173297    1.07448363848144   -0.06470243709932
N          -1.36555285112785   -0.10156603094068   -0.01313630439203
N          -0.37714918345202   -1.00253353967859   -0.05906601879647
C          -0.65057549831923   -2.34865264806411   -0.02335170676345
S           0.61397981695369   -3.52748579671859   -0.08267783932023
C          -0.56722463827803   -4.82234077500412    0.00695074818310
C          -1.85243610713984   -4.31124335330358    0.07725973972779
C          -1.89970304908420   -2.91920070292042    0.06021892761964
N          -0.06062575807358   -6.06113395281253   -0.00416905569451
N          -0.89044368505613   -7.05335066307384    0.05714369960644
C          -0.32148979055019   -8.27337744732415    0.04553571990234
C           1.01497657597422   -8.67588103007540   -0.01792161734831
C           1.03441477641696  -10.06792061223158    0.00465503737902
C          -0.27242014241658  -10.49614349833595    0.08054390838597
N          -1.10035917499758   -9.42053351583319    0.10575107123052
C          -2.47769633576649   -9.49103614732726    0.17819943636562
C          -3.38671381053422   -8.47422566698205    0.19871960808603
C          -4.71680193051005   -8.93889683322796    0.27847446856030
C          -4.80699851266342  -10.29113553940442    0.31728712894639
S          -3.26228305634486  -11.04586764822695    0.25769314567449
H           1.74211809267779   -0.98147839739427   -0.18549710272954
H           1.34198563555928    1.73111757941011   -0.20063322488613
H          -1.37089591686617    1.96998645206192   -0.04252004334785
H          -2.71532011602671   -4.94863215965751    0.13916352372949
H          -2.79423126010481   -2.32612889094541    0.10576313627868
H           1.84737386694900   -8.00410950320319   -0.07292037963792
H           1.90020351732566  -10.69907572717512   -0.03016951629995
H          -0.66350862310416  -11.49448299143286    0.11794375907782
H          -3.09431159479163   -7.44292855545341    0.15740560238209
H          -5.57111883371416   -8.28687269183555    0.30541037513274
H          -5.68291441002643  -10.90516501465742    0.37723890456102
