26
         -43.048052331371          0.000772719190
C           0.83922190867145   -0.07753931681204    0.10838750329537
O           2.24144390465663    0.06704474932066    0.04960971847320
C           2.96799225666517   -1.06671852356150    0.01227211781256
S           4.68672338497659   -0.88758227851073   -0.05876413762649
C           4.88313976877841   -2.63723228263184   -0.07786205811080
C           3.65592079065699   -3.26527184084391   -0.03013013025177
C           2.57257045565814   -2.37961360439533    0.02083789835700
N           6.14420377244231   -3.09279594582510   -0.13425180957923
N           6.30960112983143   -4.37559468702567   -0.14878013759769
C           7.58769370016046   -4.80216068344632   -0.20621522243196
C           8.82823438273424   -4.15700436976893   -0.25496761118148
C           9.80173571855952   -5.14906402934299   -0.30293584432583
C           9.14892450519022   -6.36770882861778   -0.28304719353386
N           7.81989397932717   -6.15656232893611   -0.22482013309058
C           6.79114050174275   -7.15579494213413   -0.18828922647920
H           0.43854413870969    0.93379370815550    0.13154121069439
H           0.53514205857686   -0.61454703608059    1.01189096170507
H           0.45918803462908   -0.60374675475605   -0.77243004808563
H           3.56583861982186   -4.33617659259332   -0.03313977624127
H           1.54771574096006   -2.70168990195494    0.06183154843897
H           8.96649513098330   -3.09492843478529   -0.25387382563114
H          10.86364018793571   -5.00636900585919   -0.34728038192488
H           9.55632066403479   -7.36039184024039   -0.30691521775481
H           7.24502751390446   -8.14507485057617   -0.20566097930419
H           6.12885958297179   -7.04384661194112   -1.04845192730314
H           6.19357816742089   -7.04483376683669    0.71802470167740
