28
         -49.736221030390          0.000800128505
N           1.03917368800672   -0.19820895340388   -0.07297148879425
C           2.39300423625858   -0.02397997239243    0.01243620308401
S           3.08303823900674    1.56570338332758    0.01663944504988
C           4.70908564346832    0.88727541275488    0.04099146556520
C           4.65567574448667   -0.49449827147171    0.04746254023629
C           3.35947166448081   -1.00623219956566    0.03183700380968
N           5.71889277499632    1.76224047822595    0.05141845687036
N           6.91675182428520    1.27267642431109    0.08259109331077
C           7.91446955397371    2.17886911236738    0.09927556712473
C           7.93601691452429    3.57155457329500    0.09961917955443
C           9.27406590562255    3.97004523523329    0.13148996590541
C          10.04523518376518    2.83319483925573    0.14938354211097
N           9.22965388929057    1.74091673690059    0.13007572996939
C           9.67229141231580    0.43280717976622    0.13816735798354
C          10.95068215128493   -0.06290079273281    0.17015192835551
C          10.81455500310275   -1.47103795657813    0.16207919151008
C           9.47880816019692   -1.72031190858127    0.12624530882705
O           8.78072103232127   -0.56914076378893    0.11152129980392
H           0.46706862075517    0.59888375698130    0.15331580719895
H           0.68087558032962   -1.08861143432766    0.23324288694856
H           5.55529457802685   -1.08268854783119    0.06381713663841
H           3.12235809556234   -2.05554894027513    0.03234975415722
H           7.06418042532463    4.19348831786719    0.07962864091025
H           9.64155856836688    4.97755308378403    0.14068438588280
H          11.11104148041758    2.73049483943657    0.17434304297851
H          11.86591301490932    0.49013948464767    0.19608831643487
H          11.60755168668107   -2.18980903109473    0.18052313807318
H           8.91762492823924   -2.63260408611106    0.10835310050032
