28
         -49.346276470655          0.000730335589
C           0.78890962202486   -0.40084826364444   -0.03353655787626
C           0.52069192647097    0.94271739621170   -0.01770403063349
C          -0.88356793259439    1.02377481987091    0.02194945056329
N          -1.42846714942245   -0.17177734561649    0.02985040375268
N          -0.40989454660665   -1.03881034065447   -0.00401048718408
C          -0.64170403338801   -2.39409959353722   -0.00094035745482
S           0.66037678910776   -3.53328307095352   -0.06013855432329
C          -0.48130062998701   -4.86252967387371   -0.01292314127868
C          -1.78221909107399   -4.39401335425487    0.04316571331495
C          -1.87287479820601   -3.00323843655158    0.05032176068905
N           0.05050419555851   -6.09441059183292   -0.01996065261408
N          -0.77762008269117   -7.08893263802517    0.00103900734630
C          -0.24814605231550   -8.32299579793444    0.01083474342657
C           1.04370714272963   -8.86881400440597    0.01408017444137
C           0.90146728165939  -10.24794330218773    0.01977830631748
C          -0.45746555369735  -10.53473047754887    0.03086082879867
N          -1.13462285624498   -9.37711397399591    0.02293622231322
N          -2.51341864932647   -9.22620644844485    0.09027759733460
H           1.70967002855187   -0.94708249404290   -0.06201868560755
H           1.22094299452508    1.75169953472082   -0.03175075531811
H          -1.50186203828302    1.89870939859781    0.04473497946905
H          -2.62397333532915   -5.06101760028694    0.08227412013095
H          -2.78622759278099   -2.43946751895366    0.09213396085700
H           1.94918627640981   -8.29676123547656    0.01566651246069
H           1.68918003195574  -10.97512277357844    0.01939316077790
H          -0.96447305303136  -11.47939038133830    0.03496792716994
H          -2.96117016694416   -9.57877339826549   -0.75475950313525
H          -2.68732872707133   -8.22411843399687    0.17352785626209
