26
         -46.303590251676          0.000185792251
C           0.84887341222973   -0.33662598428222   -0.01813314958286
C           0.53578131895543    1.03745124984721   -0.02250068133250
C          -0.82494457043590    1.11305275375090    0.00204590562720
O          -1.37314581204076   -0.11176522328381    0.02116017345400
C          -0.35472973830498   -1.00518012841117    0.00874857069021
C          -0.64295153174491   -2.40341235605255    0.02306423417023
S           0.63352692567166   -3.57302117762892    0.00354096382513
C          -0.52599048417280   -4.88327761732136    0.03240197474579
C          -1.82386120116764   -4.39429902475761    0.05642791628677
C          -1.88620364059055   -3.00619167063145    0.05110850181439
N          -0.01748656870196   -6.12367464932699    0.02615275326956
N          -0.85807956859260   -7.10742076127930    0.04391110994973
C          -0.31663141610420   -8.34118673195789    0.03512207931747
C           0.98966596037634   -8.83956039979089    0.01032662395665
C           0.89838576004828  -10.22931975735428    0.01244051118040
C          -0.44256810025948  -10.55904645435313    0.03825810395025
N          -1.16341910186482   -9.41963067520649    0.05177156310010
H          -2.16653954119352   -9.34053984257999    0.07071559609078
H           1.81968684181048   -0.78753860219409   -0.03263560225667
H           1.22539337361211    1.85608876154074   -0.04117366665817
H          -1.49602756545324    1.94899994179965    0.00822781189583
H          -2.67425596293413   -5.05151458727382    0.07660366839158
H          -2.79835974398008   -2.43646594269317    0.06663555965317
H           1.87645483378404   -8.23922271812475   -0.00686714271665
H           1.71562020479668  -10.92345175392183   -0.00311749026337
H          -0.91072408374311  -11.52409664851284    0.04738411144093
