27
         -50.482796391719          0.000868779194
C          -1.24141554248499    0.07985531244488    0.01399635486311
N          -0.52076196152351    1.21900871872248   -0.00218911874221
C           0.73416741136711    0.85476099907075   -0.02104017650824
N           0.86753445079828   -0.48910558385833   -0.01783962084267
H           1.71906765679401   -1.02708965566051   -0.02940457669137
C          -0.39924210271188   -1.02127203583059    0.00478082958592
C          -0.66814554199524   -2.41834395947807    0.01469121206409
S           0.61803625029903   -3.58490650816102   -0.00323799931379
C          -0.52963883500064   -4.90266524223407    0.02191705430528
C          -1.83268051470809   -4.42211872654431    0.04275999710335
C          -1.90664536253265   -3.03683120890475    0.03861384187592
N          -0.01501515221951   -6.13627313883433    0.01773425771317
N          -0.85646715586971   -7.11890258876030    0.03743293676973
C          -0.31823597082947   -8.35309913980917    0.03241031187737
C           0.97090136265318   -8.86740835155542    0.00914524910205
C           0.86997925101103  -10.26681703085596    0.01732522322837
C          -0.45941764696172  -10.59579014927944    0.04511822973128
N          -1.19141637051471   -9.43775356976519    0.05445184243724
C          -2.51274212134920   -9.35462381363832    0.08042417658854
N          -3.65619286028120   -9.30624388733056    0.10294785353348
H          -2.31167457505670    0.10328865987941    0.03109506250785
H           1.56547171845464    1.53055000954464   -0.03717650131385
H          -2.67434700096515   -5.09084810991203    0.06004346200974
H          -2.82694508145814   -2.48177760300822    0.05251055998292
H           1.86489804566082   -8.27758316005040   -0.01120731015347
H           1.68675766321615  -10.96144262330088    0.00422049565084
H          -0.94324001379168  -11.55290761289041    0.05898635263535
