28
         -48.912082174090          0.000690678070
N           1.00972628872751   -0.15425434341176   -0.14324417881822
C           2.36680631793623   -0.03599116119942   -0.03765662200734
S           3.12369266887409    1.52219624102056   -0.02282218309544
C           4.72112056793367    0.77798909722241    0.02004096283307
C           4.60716589883506   -0.60121465374177    0.02649836045913
C           3.29100749543390   -1.05786904079074   -0.00535889869806
N           5.75450554117788    1.62203181983353    0.03543699780312
N           6.94741680027817    1.11572824521208    0.06389749827415
C           7.95030677845797    2.01875156063372    0.07773768818089
C           7.95172493200024    3.41261352495326    0.07913996805722
C           9.28259132231496    3.83166420832572    0.09881144967895
C          10.06875639016945    2.70432341452365    0.10877216712210
N           9.27311561645818    1.60000698626104    0.09666357283736
C           9.73463413366676    0.29955610950559    0.09896232043695
C           9.02054451757572   -0.86233163775852    0.07510874864334
C           9.84585223090716   -2.00730051236169    0.08606695833084
C          11.16811757901427   -1.71039189447632    0.11751404760830
S          11.45018975719626   -0.01212574008183    0.13533929681210
H           0.46381208863966    0.66239249792717    0.07563090512056
H           0.61044055517021   -1.03485458577576    0.13907240682249
H           5.47090722959130   -1.24039997726238    0.05514276811448
H           3.01170815730055   -2.09667060377595   -0.00876784979797
H           7.06982264726471    4.02061548341863    0.06768684220100
H           9.63593371327172    4.84405448950965    0.10476937056966
H          11.13756114752516    2.61266869678982    0.12305911099828
H           7.94808211401652   -0.87139165791415    0.05057066532301
H           9.46422341731226   -3.01253196158492    0.07053812813300
H          12.00742409295043   -2.37629460500156    0.13128949805706
