22
         -35.817184882290          0.000970107920
H           0.99351269089098   -0.31110356049477   -0.01576066928401
C           2.06252862203853   -0.23029257106622   -0.01482693919632
S           2.79038074821514    1.32186419203125   -0.01778416656148
C           4.38286845481733    0.60286115124512   -0.01482062063771
C           4.30013290254446   -0.77689052915228   -0.01148138391753
C           2.98014798211998   -1.24105024186105   -0.01149462534122
N           5.42568022881977    1.45525746050141   -0.01608997337476
N           6.60418205694425    0.92593032250555   -0.01631371374335
C           7.64105451534207    1.78436949226414   -0.01746688906680
C           7.75215936838492    3.18045588598171   -0.01753281205513
C           9.10907198091164    3.48002911354538   -0.01927239982667
C           9.79624330636297    2.27882872721666   -0.02031355799674
N           8.91341129307421    1.26371059080978   -0.01906156466597
C           9.21624082019212   -0.13863733555130   -0.02039552400899
H           5.17577371274514   -1.39999876624782   -0.00906960422424
H           2.71079406464536   -2.28280022215076   -0.00921735894919
H           6.92554530213714    3.86171919091408   -0.01628680257506
H           9.55183798971171    4.45672056096767   -0.01976513639975
H          10.85451262361517    2.09918416574515   -0.02176720056599
H          10.29608476880060   -0.27637599538868   -0.01651775571802
H           8.79200586520146   -0.61362483106015   -0.90663570177614
H           8.78511070248508   -0.61640680075491    0.86094439988507
