21
         -40.245190231779          0.000727813028
N           0.89174364769314   -0.27491954620319   -0.18470541959106
C           2.24412435754911   -0.12077549397920   -0.08862707118843
S           2.95858956100061    1.45670368754312   -0.07431481523581
C           4.57342277315761    0.75288237020705   -0.04004920226723
C           4.49818879474854   -0.62968955242480   -0.03697861496570
C           3.19571273582529   -1.11971349227686   -0.06374663104994
N           5.59414432740471    1.61212936988957   -0.02688659138288
N           6.78779787458517    1.11497357065443    0.00224155875369
C           7.79418036586122    2.01468255715874    0.01141161918207
C           7.88254808569719    3.40897964225367    0.00274219235293
C           9.23460306995950    3.75221967646411    0.01992884686702
C           9.96868864337429    2.58439680933144    0.03875753771373
N           9.08500438230036    1.57025935452442    0.03411339046574
F           9.45647091099639    0.25496570103026    0.04721571458632
H           0.32272877423589    0.52699166446208    0.02948413348628
H           0.51565570944517   -1.16796986768119    0.09084174285590
H           5.38586185677412   -1.23564810472561   -0.01524385053391
H           2.94201527752451   -2.16496869681552   -0.06854127690380
H           7.03826523566692    4.06780090538331   -0.01371666967039
H           9.64225760635652    4.74381428558242    0.01872539600142
H          11.02531600984375    2.41082515962174    0.05446801052408
