33
         -59.255586794772          0.000286060037
C           0.80341422746514   -0.44137512250468   -0.01232760700506
C           0.57629568393649    0.90898291713938   -0.01950925712166
C          -0.82643871660276    1.03369658723561   -0.00470307140245
N          -1.40795951993356   -0.14347209715134    0.01048482063058
N          -0.41611128880632   -1.04243033177711    0.00579298483919
C          -0.68938591788894   -2.38807235532203    0.01733768721769
S           0.57590981762418   -3.56612039551849    0.00872316131948
C          -0.60832055703664   -4.86224661375931    0.02880700788481
C          -1.89667428941207   -4.35049378802807    0.04177894172863
C          -1.94170619419435   -2.95862040934139    0.03526102902441
N          -0.09516858415719   -6.09623333001495    0.02654163009199
N          -0.90909043629130   -7.10409911395568    0.03846683321801
C          -0.32601643300449   -8.32021166250487    0.03249598510845
C           1.01387257130757   -8.72138094234032    0.01578303400641
C           1.02859866240529  -10.11163086498952    0.01557186146331
C          -0.28360630002741  -10.54237790477007    0.03192849396327
N          -1.10502934435308   -9.46632195092162    0.04230597794216
C          -2.48727409508743   -9.50975606217421    0.05929500757505
C          -3.38504615376965  -10.55274304296666    0.06846537643173
N          -4.64623623455058  -10.05818276075347    0.08509620039901
C          -4.53073471157993   -8.75864621971381    0.08604763767046
N          -3.23574782598680   -8.36735322191871    0.07078219841572
H          -2.78209284779852   -7.45520268726895    0.06599901108557
H           1.70776565039064   -1.01501977304412   -0.01838780915759
H           1.30086624393796    1.69618998002067   -0.03342356783907
H          -1.41695474534399    1.92785012928850   -0.00465470997997
H          -2.76778457762294   -4.98046214341337    0.05517823558037
H          -2.83713296893948   -2.36523774688729    0.04267317463996
H           1.84902216128470   -8.05090086109039    0.00535938425736
H           1.89441858998369  -10.74350932626458    0.00468784518342
H          -0.67729007492194  -11.53889859710141    0.03672183059081
H          -3.20722208798833  -11.60823772405460    0.06414825373481
H          -5.35369970303846   -8.07352256413339    0.09759241850339
