33
         -58.794601615814          0.000328596093
C           0.83700675817904   -0.47870875079264   -0.03555504544034
C           0.74270411513526    0.92262323920606   -0.00773667058163
C          -0.54130889173124    1.36188873937435    0.08785951855458
S          -1.67000148241150    0.07038551393840    0.14584083320891
C          -0.38468225055669   -1.10276649301417    0.03945620676877
C          -0.66638012047843   -2.49694966433127    0.04271438743659
S           0.60427442982700   -3.67454414407198   -0.05394134264843
C          -0.55485746936346   -4.98343562816702    0.01517560818820
C          -1.85042311079562   -4.48944902256585    0.10798894158812
C          -1.90724429933639   -3.10335623285439    0.12380428050921
N          -0.04245822937911   -6.21867984976044   -0.00691604465979
N          -0.87260261505716   -7.21417312260475    0.01225299002069
C          -0.32340152923199   -8.44467365321083    0.02124045364501
C           1.00210685340783   -8.89073179694602    0.02517527915751
C           0.96962126175914  -10.28089564370675    0.04609747487949
C          -0.35621908370006  -10.66742749262566    0.05498934578987
N          -1.14088535497274   -9.56433660332279    0.03980208864833
C          -2.52403112678446   -9.55894532999036    0.04358403503779
C          -3.46000604387350  -10.56712885076060    0.07993801332463
N          -4.70223292434675  -10.02620350284139    0.06397191863101
C          -4.53820501645195   -8.73250537790197    0.02107817067258
N          -3.22980558109779   -8.39030236346472    0.00560723189131
H          -2.73716447133152   -7.49788776932895   -0.01906813574217
H           1.76139052642470   -1.02308261127995   -0.10727697106998
H           1.59244768464987    1.57947098210740   -0.05599478038464
H          -0.89894575250535    2.37133702503864    0.12859763512222
H          -2.71230475780230   -5.12983235141522    0.16869626016408
H          -2.81902177619363   -2.53573275894369    0.19269236996864
H           1.85996045860862   -8.24958895275197    0.01374399673843
H           1.81366890269292  -10.94170116887527    0.05427197819816
H          -0.78355049800439  -11.64994962369660    0.07087229271948
H          -3.32172502141829  -11.62786971094395    0.11619042509370
H          -5.33471358386046   -8.01694702949634   -0.00119274542940
