33
         -59.132409756138          0.000369821752
C           0.84518344403629   -0.49083382686848   -0.13255582637831
C           0.76706976454969    0.91203788164041   -0.13371547541765
C          -0.50993079961055    1.36788782491644   -0.02772128758646
S          -1.65189601430974    0.08926483843807    0.07599252266105
C          -0.38142017345964   -1.10011765454135   -0.02495227760518
C          -0.67295437502776   -2.49226529598877    0.00838185006748
S           0.59660622057907   -3.67205185849903   -0.08839709095293
C          -0.56307448670609   -4.97682325768246    0.01621444287013
C          -1.85632956073903   -4.48409791985265    0.11994368897699
C          -1.91280522195857   -3.09690924879921    0.11546728462256
N          -0.05645328062682   -6.21568341742641   -0.00981621188776
N          -0.89393105168702   -7.20047093216552    0.05328002980290
C          -0.33508765281464   -8.42455805663215    0.03973642043415
C           0.99199238508029   -8.85526020545009   -0.00293557511084
C           0.98023722935535  -10.24879713754953    0.01885042374793
C          -0.33473804233940  -10.65124984462232    0.07315517137551
N          -1.13865493726029   -9.55339319918752    0.08674355254458
C          -2.51917277938190   -9.59560049885171    0.13579979045121
C          -3.36271596968772  -10.67310808692005    0.22549113540031
C          -4.67013373303113  -10.13327603203438    0.23553667145505
C          -4.52174346017042   -8.78438149824255    0.15243017347577
O          -3.21868688514039   -8.45225631169460    0.09114745738374
H           1.76197655736983   -1.04742190560274   -0.20744010918300
H           1.62359253755281    1.55752760439744   -0.21020806565995
H          -0.85594305089260    2.38191539234034   -0.00391983653690
H          -2.70245395967725   -5.14269625546594    0.19501610605126
H          -2.82233068805344   -2.52542347212107    0.18721835721889
H           1.84028135190714   -8.20255969801451   -0.04284127731669
H           1.83395164699629  -10.89712819179474   -0.00272312412848
H          -0.74335196986796  -11.64091143636749    0.10056161112838
H          -3.09808765189028  -11.70807049850340    0.27930822749290
H          -5.58718961791555  -10.68178032194609    0.29665433575085
H          -5.23213577517861   -7.98307747890777    0.12862690485215
