26
         -46.299474641267          0.000318599308
H           0.89340855020294   -0.27337942444271    0.00902778579559
C           1.96176826413396   -0.18269024120846    0.00764150718529
S           2.67423051653376    1.37487272991273    0.01336606354014
C           4.27265793644714    0.66905331782290    0.00780394819185
C           4.20339878475869   -0.71167348309491    0.00262940391693
C           2.88806857136505   -1.18680246940702    0.00273882373018
N           5.31093753477883    1.52655049480663    0.00876498011076
N           6.48840146763023    0.99905060473211    0.00677190486288
C           7.51974360069054    1.86353146969157    0.00616243847892
C           7.59309664445069    3.25665224121480    0.00491448277296
C           8.94335463978361    3.60385035890500    0.00351990576526
C           9.67170540870223    2.43614690348828    0.00395743592350
N           8.81838889896988    1.37689308740473    0.00563668133582
C           9.21225954660263    0.05192461482050    0.00676831972639
C          10.47122959043533   -0.49174683691075    0.00734420847366
C          10.28093483514006   -1.89344161724428    0.00871534786498
C           8.93588781170396   -2.09126592598592    0.00812147682298
O           8.28240949848236   -0.91460858382417    0.00701919730277
H           5.08844270216189   -1.32109122300517   -0.00086829945980
H           2.62582219779786   -2.23020526572883   -0.00066081735457
H           6.74393022393345    3.90949711172497    0.00485639600730
H           9.34980472663337    4.59601064547834    0.00220445399334
H          10.73360454339439    2.29606571797675    0.00316000531893
H          11.40710568683031    0.02598930903921    0.00707890412777
H          11.04569842243095   -2.64215380295398    0.00951334592835
H           8.34006939600579   -2.98136973321238    0.00839209963782
