33
         -59.593773870461          0.000361072065
C           0.78620872707740   -0.43972815980854   -0.02598287177262
C           0.54749001154273    0.90926046307553   -0.01840597640579
C          -0.85483324883965    1.02112709649782    0.02501353243284
N          -1.42576768557251   -0.16203606412579    0.04235590367016
N          -0.42665679565921   -1.05142006808783    0.01133368116481
C          -0.68452066354477   -2.40156921634274    0.01976361007020
S           0.59928289916929   -3.56075493533128   -0.01335857307454
C          -0.56548640230460   -4.87159338375727    0.02048569981352
C          -1.86018058184985   -4.38303957250720    0.05492196852798
C          -1.92727357231965   -2.99118960596389    0.05469425778126
N          -0.04834230858496   -6.10711625763944    0.01188871989634
N          -0.87827690999807   -7.09859615680420    0.03239215531813
C          -0.31009090579130   -8.31849869203604    0.02938793407695
C           1.02088579672799   -8.73945783358952    0.01854307980522
C           1.01865674507599  -10.13295082218550    0.02738391588126
C          -0.29469805715214  -10.54481707656991    0.04287255121450
N          -1.10644260529207   -9.45322724902326    0.04442723206914
C          -2.48763568324110   -9.50585660806923    0.05761948206635
C          -3.32535645988797  -10.59112223360475    0.08967458950858
C          -4.63639141556384  -10.06018308816091    0.08764248867051
C          -4.49569645991123   -8.70827372302666    0.05449205638559
O          -3.19399916756796   -8.36600431388631    0.03635723999338
H           1.69506876312211   -1.00546767522169   -0.05426932443424
H           1.26524534194606    1.70261116666846   -0.04049588372652
H          -1.45322797833827    1.90989461393051    0.04384583546101
H          -2.70598143186449   -5.04555626274811    0.07920610698556
H          -2.83064718508699   -2.41014163064835    0.07870398815989
H           1.86527896387786   -8.08061257861417    0.00651952531659
H           1.87711834527399  -10.77526989590826    0.02293353062686
H          -0.69649558784872  -11.53760105649729    0.05203545187181
H          -3.05501481914672  -11.62572564526091    0.11266783487450
H          -5.55058159965774  -10.61633161627693    0.10800778624457
H          -5.21114806879017   -7.91127191847578    0.04135247152640
