23
         -39.876388749299          0.000610733173
C           0.94278885468462   -0.07162802308189    0.53760380946252
O           2.27959331735732    0.08354054808756    0.11289545059983
C           2.97531396069468   -1.04242979166532   -0.13250025680544
S           4.61238373084933   -0.84587904805065   -0.65533784777650
C           4.80599862794190   -2.59248313642803   -0.75195931109275
C           3.63935201348612   -3.23377730252449   -0.38880141721234
C           2.60383354104071   -2.35989359637864   -0.03835319480589
N           6.00882338680870   -3.03618855793130   -1.14685886737522
N           6.16994845725476   -4.31626811831912   -1.22856180478985
C           7.39095166809063   -4.73114726143312   -1.62667013219606
C           8.57853593327557   -4.08939173044143   -1.98581223747110
C           9.50228489687798   -5.08352854948947   -2.30427890746320
C           8.87677012096477   -6.30246485567565   -2.13809929134706
N           7.60968814456022   -6.08042653625145   -1.73100955562090
H           6.91104482431480   -6.77577575945752   -1.52849438245404
H           0.55995355388685    0.93671419379815    0.68045077097599
H           0.88938469932388   -0.62281849913535    1.48126996948638
H           0.34523712764890   -0.58857342396226   -0.21925608855896
H           3.55956884893011   -4.30559305216049   -0.38357490571975
H           1.62857433416637   -2.69148810024986    0.26934828984618
H           8.72393504167545   -3.02848746997105   -2.00398529188161
H          10.51604392419480   -4.93534295804413   -2.62126489049415
H           9.25731099197148   -7.29461897123452   -2.28459990730605
