28
         -49.710225216359          0.000994549430
C           0.80056717539824   -0.34684966114163   -0.05360519263378
C           0.45190929670815    1.01893264946098   -0.03407094540432
C          -0.90913488525541    1.05874945734956    0.02126715095445
O          -1.42492595210549   -0.18008551292947    0.03720348061124
C          -0.38428557601073   -1.04640690802775   -0.00829537566108
C          -0.64231352661494   -2.45079859946727    0.00054477837517
S           0.65229013714929   -3.59919704298072   -0.05756275344388
C          -0.48367173202910   -4.92807370991804   -0.00370153703630
C          -1.78837521400755   -4.46085289963583    0.05491833293558
C          -1.87394105678934   -3.07381035558226    0.05756812573917
N           0.04206774940477   -6.16243258290501   -0.00745736916444
N          -0.79111059215811   -7.15332094428229    0.01213736678055
C          -0.26619983468766   -8.39002718597883    0.02448374707077
C           1.02247901927357   -8.94162464266961    0.02875185946765
C           0.87333978434367  -10.32068113128657    0.03295383848633
C          -0.48626793366748  -10.60096911618702    0.04210259997901
N          -1.15766161068606   -9.43939631086017    0.03428678534519
N          -2.53618577634938   -9.28000258232514    0.10138232034475
H           1.78244268351515   -0.77133335221069   -0.09463011365044
H           1.11891574630618    1.85581280717717   -0.05740135549171
H          -1.60197147471177    1.87611614856106    0.05294765326148
H          -2.63100884210474   -5.12712465848181    0.09826505591686
H          -2.79495458628475   -2.52022036362990    0.10041813755875
H           1.93089822165448   -8.37462414746099    0.03171048328612
H           1.65785398721078  -11.05139017812508    0.03247305474658
H          -0.99788304707240  -11.54309997439780    0.04483974267653
H          -2.98300479927965   -9.61228539288449   -0.75185690481079
H          -2.70009736114964   -8.27797380918076    0.19842703376051
