33
         -58.788649848700          0.000441922216
C          -1.17394884043118    0.11019551210904   -0.07010915750869
N          -0.42731079021380    1.22953537312258   -0.17018626719295
C           0.81144340587896    0.83006517020216   -0.28114285717617
N           0.90909694186187   -0.51720416215663   -0.25805369336550
H           1.74153431280699   -1.08018079983885   -0.32542933462679
C          -0.36500304563394   -1.01289078196899   -0.12177605088541
C          -0.66683800722213   -2.40307332914845   -0.05836867127741
S           0.58585181543520   -3.60423655919264   -0.15340937746206
C          -0.58594404427517   -4.89530935832709   -0.00522505324412
C          -1.86790613893472   -4.37845819901981    0.10932897803516
C          -1.91030966163087   -2.98977808882419    0.07940692383462
N          -0.08112827968795   -6.13324217807268   -0.02360968208094
N          -0.90827489152096   -7.12515467189726    0.08350868302090
C          -0.33832457532088   -8.34453032575113    0.06074990393336
C           0.99471188915772   -8.74568047498511   -0.05632396523034
C           1.01795496599545  -10.13756877675390   -0.01907659137416
C          -0.28312191866943  -10.56698051875151    0.11838177195140
N          -1.11153614174861   -9.49208765056098    0.16759747150725
C          -2.48401804507671   -9.56366310173730    0.30080895190197
C          -3.39326276281961   -8.54804624085589    0.34939238564367
C          -4.71777918818328   -9.01358448836969    0.49222307721259
C          -4.80365522032423  -10.36537618991604    0.55030357708643
S          -3.26148994861194  -11.11860295318377    0.43203979434938
H          -2.23832769704768    0.16396802899869    0.03228644785634
H           1.65650530383277    1.48146564855277   -0.37926427547626
H          -2.72900247414842   -5.01370036807152    0.21088897000022
H          -2.81441218261893   -2.41308399855964    0.15513682135391
H           1.82285346296378   -8.07359928746019   -0.15509224278064
H           1.88287881271649  -10.76753720160371   -0.08454266992422
H          -0.67046332788934  -11.56530645799893    0.18402526319296
H          -3.10467038923561   -7.51690302848075    0.28377897555018
H          -5.57138134278260   -8.36246897151556    0.54891262874375
H          -5.67495199662134  -10.97993156998309    0.65532926443162
