23
         -39.488249879476          0.000684652888
N           1.07979688595310   -0.21660776021773   -0.25776706239930
C           2.43076977297092   -0.02872772562649   -0.14039456066159
S           3.11134975693637    1.56501537489832   -0.16907062386343
C           4.74021095328648    0.90140404234389   -0.08123604975861
C           4.69476274633526   -0.47918406550856   -0.03200428904005
C           3.40162074700514   -1.00135989455229   -0.06420605108229
N           5.73989252764593    1.79035887099800   -0.06731238249167
N           6.94536769269255    1.32158762438864   -0.00618599346606
C           7.94763360776816    2.22191249672780    0.01401311632605
C           8.05708369964811    3.61654598661170   -0.00773766381604
C           9.41264145867270    3.91900324464418    0.02746430837790
C          10.11284391526735    2.72436799476455    0.08008053346104
N           9.22504555720485    1.71553617526926    0.06916780053865
N           9.51435127486257    0.35803711897019    0.16623841710997
H           0.49693264244504    0.57930293183852   -0.05716768198316
H           0.72512887995602   -1.10118998733472    0.06923460273435
H           5.58933273980041   -1.07226059801384    0.02928861296118
H           3.17400885086349   -2.05229848158725   -0.03469822843095
H           7.23034543370192    4.29660865641216   -0.04166439329845
H           9.85155307483399    4.89731943438212    0.01880703915317
H          11.16792685806557    2.53881441085871    0.11439601730389
H           9.98172983892997    0.02846705759265   -0.67783656215002
H           8.61289108515410   -0.11237290785985    0.25143109447534
