29
         -49.111608215629          0.000673635486
C           0.80764851730364   -0.40805959315084   -0.02608261041090
C           0.56085509239396    0.93998817271308   -0.03044773837961
C          -0.84200605857956    1.04357823393667   -0.00615021689001
N          -1.40611616853145   -0.14348344805931    0.00987791371550
N          -0.40135097043511   -1.02631951939798   -0.00178209101915
C          -0.65009493911481   -2.37878379104749    0.01085903331128
S           0.64306070825628   -3.52986068018512   -0.00475435039052
C          -0.51074744219311   -4.84873258884558    0.02282636793862
C          -1.80865138634242   -4.36964565536285    0.04304930780564
C          -1.88720833733310   -2.97746776714643    0.03613603980088
N           0.01464602287066   -6.08310934232441    0.02000374437206
N          -0.81591880028382   -7.07495418341613    0.03891175881566
C          -0.26996268194819   -8.30433107833885    0.03472125759559
C           1.04355439390292   -8.79163126651573    0.01453622488743
C           0.96239691295599  -10.17853400997016    0.02086825613619
C          -0.38074479505042  -10.51292801317184    0.04450122778410
N          -1.11699169166167   -9.38732023348056    0.05293966378798
C          -2.54855997088810   -9.29373898168286    0.07599014941939
H           1.72074066333702   -0.96761879894029   -0.03842342104249
H           1.27491342597662    1.73685967747435   -0.04768353282498
H          -1.44631425502115    1.92860685181114   -0.00120227752845
H          -2.65441733916121   -5.03242088779905    0.06198448754255
H          -2.79701077004362   -2.40628968503221    0.04889133032164
H           1.92481707624190   -8.18282432018477   -0.00226999975130
H           1.78146991077517  -10.87057767896898    0.00964134930041
H          -0.84137896570360  -11.48236563766067    0.05556898449259
H          -2.97756532805458  -10.29387045658093    0.09557400419362
H          -2.90372604284560   -8.76211440213139   -0.80839400216293
H          -2.87313678082265   -8.74026091654110    0.95860913917924
