28
         -48.884883948801          0.000916372401
C           0.85670331266474   -0.46310004372771   -0.05630549500926
C           0.74849498688934    0.93817829261013   -0.04931037770651
C          -0.54093692484711    1.36646981870818    0.00519505449271
S          -1.65867329513647    0.06318298974365    0.04945435853229
C          -0.35978996600379   -1.09819802866381   -0.00659597536122
C          -0.62841809253752   -2.49557140848628    0.00457539132279
S           0.65806429718394   -3.66044254948771   -0.05973140688578
C          -0.48757661599669   -4.97913634152626   -0.00221057244282
C          -1.78867656310158   -4.50158600182620    0.06314279055778
C          -1.86254414469611   -3.11484307758359    0.06698983763110
N           0.02978296271803   -6.21606535235855   -0.01131379795180
N          -0.80987785973884   -7.20217729264034    0.00739985673118
C          -0.29204034586433   -8.44146954467755    0.01314557765539
C           0.99406092056241   -8.99974686018321    0.01277963352822
C           0.83795535562428  -10.37786818035407    0.01030779543083
C          -0.52325181408657  -10.65142069018755    0.02004239725744
N          -1.18887769684021   -9.48656760638411    0.01922864029741
N          -2.56648322893734   -9.32120960266701    0.08847841944129
H           1.78787428137471   -0.99901239546017   -0.09537065202824
H           1.59345802356736    1.60226169279846   -0.08288328819743
H          -0.90965843938143    2.37256493176892    0.02256795083835
H          -2.63629034769002   -5.16114227417867    0.11006155826311
H          -2.78208172722779   -2.55740123238834    0.11442778435587
H           1.90533085611930   -8.43714979784509    0.01736575677288
H           1.61878577125579  -11.11252982629648    0.00510096181742
H          -1.03961090702246  -11.59098060552306    0.01851004041609
H          -3.01566896639717   -9.64403023926589   -0.76694941790313
H          -2.72641383245529   -8.31946877391717    0.19455717814453
