29
         -49.475465354263          0.000442739386
C           0.82891185375569   -0.35889520081400   -0.01760166415642
C           0.50690160253726    1.01340130222839   -0.01752097788654
C          -0.85419420845211    1.08024653000544    0.00435805137920
O          -1.39456050171106   -0.14848342362523    0.01951136492490
C          -0.37018174866783   -1.03533981987107    0.00588138450697
C          -0.64965687984106   -2.43554613590223    0.01649049898649
S           0.63542341259525   -3.59692927335150   -0.00171212397803
C          -0.51449306308405   -4.91490564890087    0.02429178548846
C          -1.81554984582782   -4.43544040153973    0.04445175854124
C          -1.88797293979196   -3.04730970719397    0.03984865237964
N           0.00089701521985   -6.15331405810997    0.01867037196885
N          -0.83875964979547   -7.13854057682019    0.03957170803395
C          -0.29794860556204   -8.37089141859001    0.03199284263223
C           1.01519224596750   -8.85836399789246    0.00681013881193
C           0.93421236687902  -10.24544583602297    0.01313188264174
C          -0.40854997057681  -10.57965439934134    0.04082805925834
N          -1.14504096633048   -9.45352423013627    0.05268557687498
C          -2.57675996502915   -9.36233259663060    0.07957181741313
H           1.80279899175457   -0.80329171898528   -0.03204523831929
H           1.19133212677766    1.83656433996720   -0.03231357121908
H          -1.53074736081339    1.91182030076362    0.01209093097297
H          -2.66118000462564   -5.09895617847846    0.06096231548610
H          -2.80446701393519   -2.48441355822891    0.05281414841048
H           1.89491109461004   -8.24745456643781   -0.01269564435128
H           1.75303194920550  -10.93780184001631   -0.00108905453139
H          -0.86920554404104  -11.54914467101957    0.05303249485714
H          -3.00336449908663  -10.36336160088900    0.10923442467762
H          -2.93651178200655   -8.83946480225423   -0.80826456892345
H          -2.89964811012389   -8.80214681191269    0.95854263511919
