30
         -53.534237995614          0.000607375900
C           5.00025698776195   -0.81189202205709    5.58224194639389
O           4.89462692240154   -0.64754851787501    4.18669842577972
C           4.76617532002582    0.60224882919597    3.72649041484473
S           4.71738282197380    1.99811994471230    4.75572626965773
C           4.55485971542986    3.04666745512178    3.35713432572791
C           4.54052126260705    2.30682024636282    2.18991689778738
C           4.65696411831021    0.93246088405822    2.39591653092368
N           4.44462985589572    4.36053144682313    3.60023521293925
N           4.37692055040035    5.12717134210930    2.56176785948998
C           4.22936186346638    6.44320721719347    2.80157316665310
C           4.09921365802955    7.19825703891927    3.96587564399590
C           3.96923208405426    8.53466324907840    3.58503276576423
C           4.02243840119724    8.58237676211671    2.21181692887579
N           4.17858733583462    7.31943732563594    1.72785654783503
C           4.28731530201231    6.99755306681166    0.38861114456991
C           4.42283171052353    7.81398322447914   -0.70456316756004
C           4.48610513040179    6.94818806528400   -1.82177043943717
C           4.38469987355811    5.68617103396271   -1.32671931359612
O           4.26250942288771    5.70964547773967    0.01350124528384
H           5.08683083788037   -1.88239201252403    5.75590475216778
H           4.11357156830088   -0.42074970471321    6.09079809507166
H           5.88469149041575   -0.29737870289893    5.97077908012070
H           4.44110298273836    2.78461977537594    1.23240096626686
H           4.66332953052285    0.19223649852412    1.61753231339319
H           4.10035860689506    6.79304791507528    4.95741237969152
H           3.84758785989767    9.37732738542054    4.23706525341483
H           3.95168336722767    9.42487894267322    1.55403023379725
H           4.47837686518488    8.88214031267381   -0.71874711421853
H           4.59346199033202    7.23467335617810   -2.84743231435026
H           4.38785256383313    4.72532416454257   -1.80043605128294
