24
         -44.401434451989          0.000885497578
C           2.02435739050742   -1.66090968086121    0.15537492941326
O           2.19344529858598   -0.29046312448823   -0.14596613677261
C           2.84214470379105    0.01019182185586   -1.28051366512741
S           3.03914852551341    1.68756328017422   -1.64585133525066
C           3.89508533737200    1.27555949727516   -3.12654833621974
C           3.98973048583248   -0.09642593639718   -3.27536448359449
C           3.39499414730224   -0.81156039640420   -2.23584842973785
N           4.31507300866272    2.29216908743293   -3.88965595194124
N           4.96536194738215    1.97861748980030   -4.96155647200095
C           5.36461328343995    3.00644281226406   -5.73751446564710
C           5.21919185932905    4.38492080096557   -5.70883273487670
C           5.86717982638526    4.90437991066557   -6.84120692383822
C           6.39779376788438    3.85672170774820   -7.54426835127313
N           6.09632864275298    2.69540356945537   -6.88110919371309
C           6.44297153763187    1.47440771454345   -7.25553049849663
N           6.75337436053222    0.42759585931994   -7.59957734085077
H           1.48762628222928   -1.68974518474881    1.10111796966513
H           2.99049720101750   -2.16320076809284    0.26414297015817
H           1.43637035347153   -2.16453747671076   -0.61796191933930
H           4.48029913678673   -0.53785435006455   -4.12407507924519
H           3.37468437403159   -1.88505385887828   -2.19129030282494
H           4.69790323487638    4.92946373183635   -4.94814096802577
H           5.93683030029658    5.93939543000649   -7.11252242837270
H           6.96212499438423    3.83875806330273   -8.45609085208848
