27
         -50.002366741529          0.000384782109
C           0.88144838754817   -0.43215674839851   -0.02043940288807
C           0.78330085370986    0.96851947301274   -0.02005026220006
C          -0.50565385931599    1.40523197164151    0.00245061715029
S          -1.63331417230295    0.11245664137946    0.02312717755318
C          -0.34207872869254   -1.05857183067445    0.00194580310258
C          -0.61644036516117   -2.45378183592396    0.00979579260135
S           0.66664667935181   -3.61997347050049   -0.01087366044227
C          -0.48585653621676   -4.93416401867033    0.01742190162907
C          -1.79007517905897   -4.45333759931227    0.03973943759431
C          -1.85786931673545   -3.06930351710527    0.03510445871233
N           0.01781361970146   -6.17315541240383    0.01363802082033
N          -0.83518645553051   -7.14548860521294    0.04365701180443
C          -0.31470883208208   -8.38723512122702    0.03731383690436
C           0.96550389226776   -8.92222332916867   -0.00241293926900
C           0.84237410717876  -10.31991259169455    0.01359026426713
C          -0.49148303399805  -10.62762902603536    0.06238191020361
N          -1.20471686611432   -9.45791453632130    0.07670758041157
C          -2.52399648954058   -9.35322886562174    0.12279258512204
N          -3.66577898238804   -9.28701003530411    0.16363783786919
H           1.80882578831860   -0.97604552168061   -0.03632487744170
H           1.63306015863254    1.62694071605408   -0.03573187708071
H          -0.86592749280417    2.41466312638141    0.00779712274567
H          -2.63390228870303   -5.11924621985858    0.05836630159906
H          -2.77491638786669   -2.50624068072164    0.05022817095106
H           1.86811224226949   -8.34655949028981   -0.03873592664824
H           1.64758056672228  -11.02773018186744   -0.00822843434280
H          -0.99034130919117  -11.57676329047692    0.08799154927101
