26
         -45.961394855476          0.000687949858
H           1.03280014196516   -0.43326887272031   -0.32667872407851
C           2.08634489860467   -0.30865491605214   -0.17227050883482
S           2.82717454674843    1.18296209572784   -0.57390321982541
C           4.38788820969868    0.56844163444026   -0.08446130966453
C           4.28260729361458   -0.73191796380678    0.37773952099186
C           2.97252711731643   -1.21955604991591    0.32765183805290
N           5.42210910670488    1.42533541821509   -0.15448442565212
N           6.60576125821907    0.92736456771757   -0.02568615096118
C           7.63729907161343    1.79353805594701   -0.00462460364818
C           7.71034184492005    3.18975144754313   -0.01044699270931
C           9.05691713967682    3.53209962104867    0.05097343207920
C           9.78458613832260    2.35880886524321    0.09204901666955
N           8.93413954539124    1.30684492376367    0.06119936118494
C           9.30081281537978   -0.02707111981652    0.08050926767753
C          10.52238084902729   -0.65392171669289    0.17485265272950
N          10.34105653561062   -1.99616712245953    0.14813810060450
C           9.05543818149589   -2.19042856314149    0.04177141965408
N           8.37149991755546   -1.02461904406855   -0.00530971124245
H           7.37976551926154   -0.79980653644830   -0.07305821741497
H           5.12176212851268   -1.28455387176570    0.76159064428785
H           2.68998997156384   -2.20776784556195    0.64478408000139
H           6.86385427488299    3.84472070988402   -0.05199508294751
H           9.46637665927493    4.52265511254455    0.06458160375088
H          10.84507412686041    2.21217248715218    0.13875125976984
H          11.50247423954155   -0.23256180312145    0.26042336279378
H           8.58435846823723   -3.15097951365583   -0.00576661326864
