32
         -59.530989718494          0.000408322312
C          -1.18063394960736    0.11317153814580   -0.00285514027472
N          -0.43593935197673    1.23605991609625   -0.04409489057631
C           0.80965681197678    0.84414326193556   -0.09612382773278
N           0.91362118079761   -0.50228859885464   -0.09060210575150
H           1.75262586894098   -1.05876871624550   -0.12347989002551
C          -0.36344155461969   -1.00623204688585   -0.03050183689852
C          -0.66421808349477   -2.39683777965127   -0.00626196291149
S           0.59038712501374   -3.59498539399721   -0.05084414618903
C          -0.58892535636031   -4.88588117687773    0.01097689553644
C          -1.87740914179363   -4.37037247174125    0.06279259222755
C          -1.91680984758871   -2.98366815684908    0.05315037654581
N          -0.09291613490093   -6.12607319828283    0.00169203371837
N          -0.92959189119450   -7.11034299232201    0.04316465064428
C          -0.35900958108186   -8.33492169446731    0.03422197371349
C           0.96099823929881   -8.79967695372584   -0.00674747794586
C           0.85142489076309  -10.18338627537290    0.01139407382920
N          -0.41767340646537  -10.56874520156441    0.05964128574346
N          -1.14715918632839   -9.45564654332196    0.07323420843458
C          -2.52101408476485   -9.54131447865433    0.12167374306916
C          -3.53316852874352   -8.61199901522881    0.14344945442909
N          -4.72671398650771   -9.25100269780876    0.19409676709008
C          -4.46213785620657  -10.52789864287514    0.20218829481092
N          -3.12953945543566  -10.76566713257864    0.15967772706590
H          -2.62607844356964  -11.63853792105294    0.15399450543325
H          -2.24919786817887    0.16040004091967    0.04397629781882
H           1.65468363498272    1.50153032427108   -0.13830505181295
H          -2.73959611814739   -5.01061239372380    0.10604436666793
H          -2.82246896863929   -2.40600723020620    0.08781162240538
H           1.84379727935149   -8.19714733602894   -0.04349332133805
H           1.63020477304564  -10.92002369621865   -0.00790558581330
H          -3.45859070668290   -7.54629487174306    0.12574556205867
H          -5.19803630188233  -11.30513246508923    0.23834880602762
