25
         -50.726552900468          0.000198820740
C           0.84105092062356   -0.32253119221888   -0.01322138257330
C           0.52469736947274    1.04925736533544   -0.01684661843604
C          -0.83784290308485    1.12045453612519    0.00531323940158
O          -1.38220905228451   -0.10333548431579    0.02251323463733
C          -0.36237196907539   -0.99478993486113    0.01137672778146
C          -0.64761356116352   -2.39220767579881    0.02434914231795
S           0.62501125531142   -3.55908505514151    0.00626915676921
C          -0.53869308688572   -4.86686198332955    0.03280296542371
C          -1.83963693667116   -4.37597032925715    0.05490307589219
C          -1.89745443726065   -2.99156064147052    0.05010969461478
N          -0.03954378482074   -6.10631904290550    0.02664425435369
N          -0.87816153497276   -7.08626247121563    0.04369593119797
C          -0.32068820727375   -8.31819441137992    0.03454655771551
C           0.97693445752078   -8.84931100485308    0.01108362673704
C           0.80308321727319  -10.22731165387084    0.01440033298723
N          -0.48605275228877  -10.55455019346446    0.03786790163899
N          -1.11514384246541   -9.41668701695295    0.04923073876514
F          -2.47133244406068   -9.40567342681552    0.07347401853488
H           1.81322138428842   -0.77071553608118   -0.02644456866228
H           1.21166773556584    1.86985671428514   -0.03369712726737
H          -1.51012912113201    1.95552151728441    0.01082788011878
H          -2.68875832683933   -5.03510119722583    0.07320938539793
H          -2.80625664519098   -2.41701712638053    0.06414950510725
H           1.88641486601160   -8.28655547857186   -0.00547630847586
H           1.54400739940264  -11.00106927691988    0.00097863602232
