23
         -44.656467398996          0.000674374782
C           1.96926942282853   -1.55211659762886   -0.35509687477166
O           2.20642577044678   -0.19522186622443   -0.03129671909950
C           2.84564406740992    0.06107519897337    1.11424700580747
S           3.10845011977039    1.72063215237550    1.50824639615564
C           3.92303843306269    1.24872950298146    2.99565700701157
C           3.95546577062751   -0.13134662401018    3.12461331223674
C           3.34792675206495   -0.80148010237664    2.06712678493541
N           4.37645494939639    2.23118473403406    3.77683578118425
N           5.00033941818177    1.88272371648003    4.85242433020094
C           5.41746919827585    2.89782034409558    5.64120240609432
C           5.27848118015987    4.27967213166662    5.66539712647466
C           5.95913375694230    4.68959897986022    6.81901160413127
N           6.48423530040837    3.67446345174465    7.46927351216724
N           6.15950664877320    2.57910069879981    6.76623573767380
C           6.52532923553865    1.35347018294071    7.11900872832580
N           6.83337147875770    0.29098816578964    7.41053418186280
H           1.44563242282900   -1.53884008243843   -1.30843881806951
H           1.34425503332559   -2.03293698532770    0.40273237038055
H           2.90843055719393   -2.10270187767211   -0.45795487003718
H           4.41390605176405   -0.60635870899374    3.97328721784121
H           3.28092975855106   -1.87206613194279    2.00311939657970
H           4.75631102086385    4.87975558792187    4.95045794083468
H           6.08686365282843    5.68451412895096    7.19795644207955
