32
         -59.511457185527          0.000298170811
C           0.85434657144591   -0.40189394262755   -0.01458453609826
C           0.63423886187649    0.94888810412837   -0.01303509647598
C          -0.76871926203688    1.08079093282966    0.01146656540696
N          -1.35598409953986   -0.09263745776423    0.02388969625205
N          -0.36881738821213   -0.99731307898063    0.00802208785716
C          -0.64744309063398   -2.34085688688484    0.01580712426498
S           0.61193012868266   -3.52268520433175   -0.00406089617799
C          -0.57890880107400   -4.81174450411033    0.02042741288169
C          -1.86586773116666   -4.29565763035922    0.04232093693531
C          -1.90488792400184   -2.90558827144243    0.03975114810876
N          -0.08357187707966   -6.05319838642832    0.01580982844995
N          -0.91738937969674   -7.03883141238706    0.03206526581040
C          -0.34215671788350   -8.26180038563044    0.02827952000883
C           0.98057724989887   -8.72037644467678    0.01262400680779
C           0.87697718563123  -10.10455978833333    0.01998609390633
N          -0.39140283173758  -10.49548026073624    0.03852598931165
N          -1.12588431583728   -9.38621684474079    0.04350884772535
C          -2.50012633070103   -9.47809681362623    0.06215458441749
C          -3.51672511906786   -8.55322957864441    0.06852561205475
N          -4.70802612318683   -9.19777734628539    0.08882770437796
C          -4.43803497275477  -10.47361269095336    0.09483009110279
N          -3.10386260575652  -10.70534946438534    0.07912658537470
H          -2.59681665216459  -11.57619399971461    0.07859385536286
H           1.75550607932700   -0.98033605093337   -0.02947581935150
H           1.36251768568028    1.73261615546231   -0.02719337628385
H          -1.35405510497494    1.97825439296375    0.02026235663922
H          -2.73029266317218   -4.93382763795356    0.05970087094747
H          -2.79651543770478   -2.30670286409033    0.05442689208442
H           1.86079333110396   -8.11320661459460   -0.00159612166695
H           1.65904940847250  -10.83786880840809    0.01275975174637
H          -3.44639039755220   -7.48708052264232    0.05944586526665
H          -5.17115767618308  -11.25415669371834    0.11020715295265
