32
         -59.872505078335          0.000259988231
C          -1.22220053793128    0.07849071533691    0.03096252280349
N          -0.48701837070538    1.20840676386773    0.00387337764437
C           0.76228221453572    0.82759685903552   -0.03933078639245
N           0.87770890061567   -0.51799814124160   -0.04156927345057
H           1.72159115005863   -1.06724272470289   -0.07036974937648
C          -0.39534518105532   -1.03341206235117    0.00351321080703
C          -0.68250191636940   -2.42732549559744    0.01592400220717
S           0.58781785930180   -3.61002734558666   -0.02326799468016
C          -0.57641059968005   -4.91381333002098    0.01898549625180
C          -1.87171990032336   -4.41637440034859    0.06052427809953
C          -1.92812283904988   -3.02966106055953    0.05884349575451
N          -0.07222567045086   -6.15160005698049    0.00830216052284
N          -0.91041972926984   -7.13436075452977    0.03737896934825
C          -0.34474443985060   -8.35951177116548    0.03075171025197
C           0.97451398621758   -8.82405132422763    0.00811647547574
C           0.86271683810264  -10.20907176316207    0.02075265360581
N          -0.40483336465846  -10.59443217772812    0.04839350017514
N          -1.13601975034315   -9.48361059660818    0.05465187966208
C          -2.51120043444870   -9.57676396664318    0.08160987681689
C          -3.29126108315331  -10.70258524216853    0.11411236706493
C          -4.62414265726767  -10.23287332079279    0.13031443154713
C          -4.54836674772911   -8.87418191943675    0.10675504092739
O          -3.26423128622412   -8.46701949914843    0.07690595851866
H          -2.29153052349794    0.11625112682156    0.06846236467181
H           1.60198853145170    1.49238495510817   -0.06955442900858
H          -2.72009531655955   -5.07590602836687    0.09053720817459
H          -2.84045087282401   -2.46191001445002    0.08773708727957
H           1.85687377747380   -8.21984573021569   -0.01330768504863
H           1.64186690321621  -10.94533198521874    0.01104263487072
H          -2.94042144112711  -11.71215942972990    0.12437980233521
H          -5.51295834488633  -10.82850905809003    0.15608332327513
H          -5.30141915356829   -8.11218122109836    0.10771608986501
