26
         -50.737070350120          0.000357505475
C          -1.22747764369852    0.08546880759618    0.01065903247492
N          -0.49778586671311    1.21674977442320   -0.01466782377511
C           0.75479832172302    0.84210355679974   -0.03426045113533
N           0.87758540427255   -0.50186413428656   -0.02282089830925
H           1.72562801956997   -1.04555735078868   -0.03307568327338
C          -0.39370052208687   -1.02394062450777    0.00626840665746
C          -0.67516894318648   -2.41702615781276    0.02350131736031
S           0.59684152907432   -3.59476419026209    0.00689175572064
C          -0.56605225506466   -4.90102167818017    0.03630617014654
C          -1.86614224543057   -4.40499589915822    0.05897225874884
C          -1.92387203869518   -3.02160845169152    0.05192957808658
N          -0.06510462190717   -6.13571130717835    0.02997967947261
N          -0.90487964711185   -7.11849914717334    0.04719519713721
C          -0.34415014064690   -8.34744102817675    0.03586066590577
C           0.94909401672972   -8.85668930714048    0.01066603960061
C           0.78787738455017  -10.24717715641996    0.01131169038177
N          -0.48025441271851  -10.59615872056297    0.03388281285165
N          -1.17858210381265   -9.45173487241486    0.04936913001774
C          -2.50522370367227   -9.41071363820335    0.07329793535172
N          -3.64767221990703   -9.35828056262377    0.09457035905324
H          -2.29744026159844    0.11785827920040    0.03019315361389
H           1.59075161670733    1.51191382741939   -0.05688150514809
H          -2.71407826498756   -5.06584434198157    0.07926240604388
H          -2.83673064592176   -2.45467763723409    0.06609533774785
H           1.85555522968024   -8.28898524015851   -0.00521950665640
H           1.54650401485222  -11.00473279948307   -0.00443705807562
