27
         -49.146336652510          0.000970367085
C           0.87916957471118   -0.43952119645523   -0.02613146902955
C           0.78532401958466    0.96165930122502   -0.06483330889019
C          -0.50159629340378    1.40262190844446   -0.07098648838612
S          -1.63333260241581    0.11285212991643   -0.02853921591001
C          -0.34546711289614   -1.06170276700046   -0.00258155003432
C          -0.62653484123752   -2.45610255862294    0.03343276658467
S           0.64971699642962   -3.63064617046548    0.02104094347658
C          -0.50924843609985   -4.93874369130906    0.06460059887108
C          -1.80810498671887   -4.44928951312593    0.09339329662975
C          -1.86926888820992   -3.06332514285501    0.07690573478945
N          -0.00557766721967   -6.18019926413405    0.08260791070150
N          -0.84908427684430   -7.15873848144681    0.06131645305129
C          -0.31980631108655   -8.39835903650088    0.07476056385208
C           0.96442849004128   -8.97113495245330    0.02552165222211
C           0.73707028473148  -10.33191766606978   -0.01323549870982
N          -0.57392443214594  -10.61003259478688    0.01261841825650
N          -1.18252460285273   -9.45553429923738    0.06726307112393
N          -2.54741198865804   -9.35994549357961    0.19229214390785
H           1.80540553796213   -0.98539170015850   -0.01468984506779
H           1.63745359665335    1.61688667416173   -0.08721314109492
H          -0.85989391072241    2.41233067126033   -0.09803861434391
H          -2.65997489049604   -5.10375335670164    0.13337952746768
H          -2.78375343901647   -2.49608788190136    0.09448303647274
H           1.89338343553018   -8.44160989361096    0.01203798200649
H           1.44358229035193  -11.13583009149166   -0.06337980968980
H          -3.00035448087055  -10.13290707945975   -0.28377726854571
H          -2.84704506510106   -8.45025785364140   -0.14519788971149
