22
         -44.300603587744          0.000440934877
C           1.91686725024967   -1.48036020849694   -0.66073152222345
O           2.32217484216635   -0.25960648704005   -0.07351355452884
C           2.95526205535192   -0.32526370855245    1.10408092230862
S           3.42624107781761    1.17309312583791    1.82127453005350
C           4.11761683493112    0.31200838977858    3.19157847696159
C           3.96186706461291   -1.05592893361035    3.04353629110445
C           3.30663809312591   -1.41715246538532    1.86814115531495
N           4.67293427860387    1.05460530039974    4.15424309323973
N           5.18331452643243    0.43072427219015    5.16034341337517
C           5.72890493625323    1.21845733868748    6.11580084134765
C           5.89696451243450    2.59202323064581    6.33832068861540
C           6.55561384718186    2.68256429080636    7.55838857406673
N           6.79199704786045    1.47969768243338    8.07415385088665
N           6.29524851447921    0.64731613627398    7.20687407373955
F           6.37619762485453   -0.68697188076514    7.44213059369247
H           1.42782704520684   -1.20941648586087   -1.59386106109225
H           1.21171440085784   -2.01182983717784   -0.01562341888905
H           2.77733682186135   -2.12235515931403   -0.86859369490513
H           4.32281067380511   -1.74693639574015    3.78368609108927
H           3.10071318575298   -2.43527534399879    1.59239561715800
H           5.57501689044259    3.37897822503502    5.68943595182694
H           6.87250847571769    3.55651891385387    8.09103908685809
