20
         -36.340795044924          0.000881775939
N           0.89027612027667   -0.24490007492392   -0.08695313049781
C           2.24225653009237   -0.10481692617199    0.00427735885246
S           2.97428721928481    1.46339310817841    0.01823426217299
C           4.58175751811521    0.74123100243088    0.04707872777568
C           4.48968896652770   -0.64147672818355    0.04886540345542
C           3.18290374072684   -1.11628144486341    0.02526852031148
N           5.60871886245191    1.59022160467545    0.05752711538731
N           6.80255099372266    1.09440186108341    0.08061908659561
C           7.80278793826452    2.01040065231361    0.08719163843221
C           7.88096778093856    3.40652101991451    0.08341070636585
C           9.24597882157651    3.67928478356274    0.09601502655461
N           9.96476978072608    2.56451048917184    0.10655607767353
N           9.08972342110943    1.57113147136874    0.10183374301995
H           9.39482846182864    0.61099433322115    0.10624787836093
H           0.32458242007158    0.56111212475139    0.11817991104946
H           0.50134190848384   -1.13835972604756    0.16670762142253
H           5.36929304900550   -1.25924280930006    0.06740554407323
H           2.91656743481307   -2.15828640877772    0.02017898085197
H           7.06093792066522    4.09313656592614    0.07344428293748
H           9.73694111131890    4.63250510166996    0.09764124520510
