32
         -59.050562590475          0.000156045663
C           0.90280334537407   -0.45450242275848   -0.11057688718730
C           0.83053893208642    0.94779389854965   -0.11183023701272
C          -0.44682707332435    1.40847067605279   -0.01897295759802
S          -1.59490781866666    0.13710006169565    0.07229055530508
C          -0.32873034025203   -1.05782063971289   -0.01623579343222
C          -0.62851263116365   -2.44772225121741    0.01357201284570
S           0.62693532671605   -3.63924184318856   -0.07566135801987
C          -0.54803490832529   -4.93205640287325    0.01982359201363
C          -1.83783911823134   -4.42311203424217    0.11638799818810
C          -1.87829788510003   -3.03788055694892    0.11279658535553
N          -0.05829055088880   -6.17585901685472   -0.00246629642141
N          -0.90474524495390   -7.15107332352346    0.04866510295453
C          -0.35274083887879   -8.38365763853203    0.04022268338537
C           0.95861920243380   -8.87265489144707    0.00774327810784
C           0.82346922067692  -10.25413935888384    0.03170898539270
N          -0.45275434737425  -10.61639401484303    0.07504512059059
N          -1.16147615621833   -9.49001798653469    0.08018265333869
C          -2.53699321858002   -9.54676948180628    0.12001287730887
C          -3.52864866766989   -8.59528941340004    0.11751209381603
N          -4.73646688519365   -9.20675268463410    0.16970645504348
C          -4.50018603248149  -10.48877029782100    0.20258632552290
N          -3.17274604113346  -10.75653566700897    0.17447710876662
H          -2.68988176827179  -11.64087935579387    0.18650711496600
H           1.81780382766249   -1.01535523326373   -0.17573601222484
H           1.68994888238349    1.59027422930569   -0.17848895671387
H          -0.78759848387119    2.42444257592148    0.00179604446019
H          -2.69692384866491   -5.06484522290841    0.18825539199204
H          -2.78182410027561   -2.45701212508786    0.17942620701111
H           1.85226952458182   -8.28625894216345   -0.02670504529925
H           1.58866781964191  -11.00509454462398    0.01974204706827
H          -3.42960963596233   -7.53214379273747    0.08009558983826
H          -5.25343048607532  -11.24879229871571    0.24652772063803
