32
         -59.032473217074          0.000163102772
C           0.71801706496760   -0.42181646925781   -0.19938682101251
C           0.43835860874901    0.91787566194870   -0.20042212738259
C          -0.96517320910037    0.98859726544118   -0.09230156194301
N          -1.49779364815927   -0.20907253249772   -0.03035969405748
N          -0.47389820667434   -1.06988318495510   -0.09530465057466
C          -0.69140788177485   -2.42372962366260   -0.05326531857272
S           0.61539434107571   -3.55075823162308   -0.13518431700620
C          -0.51433926426399   -4.88750811073374   -0.01788400025692
C          -1.82007970615651   -4.42858210529606    0.07615223214497
C          -1.91909206589949   -3.04194267455982    0.05607232579710
N           0.02729484570956   -6.10935945347527   -0.03345458017732
N          -0.76105324966210   -7.12196247570222    0.05651436958349
C          -0.19434136333698   -8.34125839338826    0.04140006966355
C           1.10128283002397   -8.86094873442944   -0.05373135951397
C           0.92685259355288  -10.23801879947824   -0.00038136325226
N          -0.35512075778700  -10.56643038831685    0.11760447031175
N          -1.02777166955332   -9.42722889939034    0.14234894071807
C          -2.39595554218977   -9.37272511715698    0.25764292313301
C          -3.25622814690265  -10.42848213600132    0.36287788969641
C          -4.59789214844591  -10.00704794140696    0.46429936571731
C          -4.72583571792050   -8.65651618340514    0.43460604073647
S          -3.20766740806472   -7.84632098793830    0.28151327605704
H           1.64148288612360   -0.96051451918173   -0.26205206552620
H           1.12873455991632    1.73250488421751   -0.26797287447432
H          -1.58828985733369    1.85969213074254   -0.05848615101198
H          -2.64954605231629   -5.10726628626467    0.15578308365509
H          -2.83326714261554   -2.48127551466636    0.11763964980014
H           2.00752311134199   -8.30070159224981   -0.14635049677520
H           1.66936461767391  -11.01015996266432   -0.04150420218368
H          -2.92421773625183  -11.44964912368143    0.36551832396244
H          -5.42561765063208  -10.68705409014205    0.55585711307503
H          -5.62570703409482   -8.07759641082318    0.49426150966923
