32
         -60.217387261271          0.000389645750
C           0.81421531013911   -0.35892652244855   -0.02847865224948
C           0.50178830305416    1.01444738430064   -0.01714065665316
C          -0.85917309061955    1.08964333900261    0.03057467510037
O          -1.40704364200649   -0.13379107938379    0.04932931723098
C          -0.38985584994004   -1.02784341996405    0.01372237262064
C          -0.67858399435614   -2.42531285704626    0.02420413015960
S           0.59360601352416   -3.59469082106926   -0.01659975601776
C          -0.56990427536615   -4.90198567274270    0.02324663161680
C          -1.86860545947376   -4.41087348458335    0.06545369881258
C          -1.92612611385854   -3.02470334912050    0.06611849457052
N          -0.06821428110555   -6.14199545156212    0.01197873703036
N          -0.90744056576231   -7.12342784055816    0.03661961808382
C          -0.34165662088358   -8.34927419370223    0.03131744831853
C           0.97775917494587   -8.81295603970641    0.01641486824195
C           0.86671619133369  -10.19823523628230    0.02614382198724
N          -0.40073273599234  -10.58453197906026    0.04542561143566
N          -1.13247510515021   -9.47377076272545    0.04860453768506
C          -2.50790581134786   -9.56614483902591    0.06636152115207
C          -3.28982005389867  -10.69087602050430    0.09061221524237
C          -4.62219991969093  -10.21925205495978    0.09952905016897
C          -4.54416067179841   -8.86065943018897    0.08030256795583
O          -3.25932173390197   -8.45542407244467    0.06020534945722
H           1.78467915296686   -0.80945428296860   -0.06272295692207
H           1.19078945636207    1.83326173331923   -0.04114797959362
H          -1.52913484826769    1.92618144418782    0.05437093231946
H          -2.71586271046504   -5.07186557290789    0.09441275084227
H          -2.83472154433622   -2.45004011137529    0.09568179442515
H           1.85915797137004   -8.20725898981263    0.00164391662282
H           1.64632015458510  -10.93405551573873    0.02037137737078
H          -2.94084498877595  -11.70104453925969    0.10029653105413
H          -5.51214106252745  -10.81351630329622    0.11792728411019
H          -5.29585664875613   -8.09737345837192    0.07862074782041
