18
         -37.067705085247          0.000948030963
H           0.92608585876256   -0.27945358438362    0.02580951804599
C           1.99609774801225   -0.20584449759128    0.02270353632750
S           2.73335681582791    1.33375142240935    0.01905582975287
C           4.31928743348259    0.59647307853921    0.01529357672141
C           4.22381835128223   -0.78612638064363    0.01698195788348
C           2.90208096005150   -1.23284530536946    0.02123344063159
N           5.36888306126166    1.43339156725785    0.01214935090841
N           6.54154699124858    0.90714978171283    0.00878552817259
C           7.57259663090222    1.78327571222262    0.00677131827906
C           7.72771003670690    3.17671755152575    0.00865333467614
C           9.10045265823063    3.38719489383454    0.00527065208102
N           9.76801989136454    2.23639380501861    0.00158353343801
N           8.84699275646797    1.31963279614458    0.00259312052581
F           9.20829437308599    0.01265835033123   -0.00067700368389
H           5.09511092750200   -1.41552400687363    0.01521015311845
H           2.61726541359252   -2.26979214055280    0.02318169418002
H           6.93707126220322    3.89729136907016    0.01203778253296
H           9.64197883001476    4.31161558734769    0.00538267640856
