32
         -59.391958434577          0.000448623740
C           0.88145989828994   -0.47202963601275   -0.16079093597078
C           0.81408344456651    0.93058744035575   -0.17478236989830
C          -0.46132883514124    1.39658117921951   -0.08553984850551
S          -1.61377527298984    0.12947719421023    0.01749811261301
C          -0.35181549963232   -1.07062510580446   -0.05983762562407
C          -0.65455832549902   -2.45975729352385   -0.01803758292321
S           0.60242577514236   -3.65052701395727   -0.09617823338733
C          -0.57176693584713   -4.94285837180273    0.00951978693556
C          -1.86240010010725   -4.43608750421006    0.09942838022717
C          -1.90393950370039   -3.05028845921702    0.08358739278596
N          -0.08095448861607   -6.18613176609173   -0.00900247682151
N          -0.92328066571794   -7.16294751618491    0.06533370132480
C          -0.36153720858675   -8.39050220355797    0.04574741908074
C           0.95522034697516   -8.85610053807507   -0.03072531207640
C           0.84379191439343  -10.24094700010576   -0.00141330992443
N          -0.42139050695769  -10.62532397921578    0.08575266082011
N          -1.15134733202047   -9.51367624963303    0.11422830138570
C          -2.52410575129224   -9.60559583259753    0.20223653695588
C          -3.30256217810606  -10.73043483513437    0.27832475163332
C          -4.63327566902179  -10.25944160744634    0.34903392258968
C          -4.55780364724894   -8.90109098504800    0.31046676904155
O          -3.27600254515856   -8.49537634101559    0.22139771610026
H           1.79477472952830   -1.03598507741060   -0.22174701543035
H           1.67574163288696    1.56928014754382   -0.24862864996142
H          -0.79884998386572    2.41373083322997   -0.07466834886945
H          -2.71535081839198   -5.08619408329521    0.17227160888289
H          -2.80732319033159   -2.46810959216646    0.14331068110560
H           1.83526123325208   -8.25178149163565   -0.09620534158595
H           1.62156668394786  -10.97774902660448   -0.03899973235032
H          -2.95231636855516  -11.74021540577442    0.28173928872064
H          -5.52047954573259  -10.85399675471488    0.41886721770311
H          -5.30950128646237   -8.13829312432298    0.33794253542339
