21
         -36.076998757099          0.000860459455
H           0.98760745360729   -0.11129332284994   -0.02737055102066
C           2.05783049083199   -0.04462700454306   -0.02614775693271
S           2.80580476428678    1.49341357878463   -0.03301398104809
C           4.38718214583040    0.74971944127082   -0.02720118470955
C           4.28491157548049   -0.63002927116841   -0.02008363561700
C           2.95918598395617   -1.07252298227330   -0.01946355899803
N           5.44042126537296    1.58675820677776   -0.02935702144056
N           6.61298836908060    1.05625407421317   -0.02771594299480
C           7.64713480475081    1.93004684363588   -0.02853879124010
C           7.76992827135207    3.32671639065421   -0.02813141202996
C           9.13918912021346    3.55017941340597   -0.02844638121395
N           9.81414346198693    2.40322661253393   -0.02900924467537
N           8.91810195622961    1.43893068910599   -0.02895883703907
C           9.30713284677514    0.06035068781692   -0.03008347987220
H           5.15076235338726   -1.26669837503570   -0.01544039564995
H           2.67204707519264   -2.10916069248797   -0.01435281966672
H           6.97101684457973    4.03785257282485   -0.02753619164812
H           9.66941523177769    4.48177034475820   -0.02823917369342
H          10.39424644741334    0.02384870671041   -0.02600463999975
H           8.92080118407823   -0.44044929383993   -0.91878483159210
H           8.91370835381640   -0.44355662029447    0.85366983108210
