26
         -51.082208425441          0.000329957466
C           0.85112404267419   -0.34885784146685   -0.01484616167508
C           0.54404591459595    1.02443895808989   -0.02370007537147
C          -0.81857066080551    1.10445879504873   -0.00362515290756
O          -1.37098911649811   -0.11499610795537    0.01728807383425
C          -0.35737847669277   -1.01341859827742    0.01042854430785
C          -0.64895999120308   -2.40871438733980    0.02645115878330
S           0.61931612696680   -3.57931601188105    0.01253354168211
C          -0.54931733885354   -4.88336132350761    0.03817271350051
C          -1.85029109857340   -4.38731642418178    0.05764347464871
C          -1.90246271566436   -3.00396962205250    0.05099883252821
N          -0.05686271222769   -6.12277311326608    0.03206449416195
N          -0.90270555503796   -7.09967407711815    0.04773692296697
C          -0.34893510319065   -8.33236486309701    0.03565932572471
C           0.94116132662218   -8.84903303329026    0.00820396829544
C           0.77195039650336  -10.23866996732334    0.00812183843929
N          -0.49809271258624  -10.58053972566768    0.03394284928292
N          -1.18972430603726   -9.43182457020358    0.05033549055267
C          -2.51596393799853   -9.38383945655737    0.07674889503022
N          -3.65822137434956   -9.32757476650731    0.09920378360715
H           1.82006599837831   -0.80406072011609   -0.02525213285939
H           1.23634150131525    1.84045471834892   -0.04263355665096
H          -1.48466635628610    1.94454298790258   -0.00205028848029
H          -2.70050513373429   -5.04535202369709    0.07516932434599
H          -2.80878347642413   -2.42554761764417    0.06270135880168
H           1.85041523151786   -8.28608187051576   -0.00907338400992
H           1.52607952758976  -11.00062933772393   -0.00909383853908
