25
         -45.735391693228          0.000184045715
C           0.91554524927750   -0.44813252695155   -0.01475568382425
C           0.85223036123647    0.95463236389391   -0.02857785773682
C          -0.42530486936846    1.42330887515227   -0.01501474523067
S          -1.58472532734578    0.15888725931735    0.01511560803759
C          -0.32286610040343   -1.04366596523399    0.00965818943262
C          -0.63028252300682   -2.43237749844681    0.02617915991415
S           0.62560004011834   -3.62667245866536    0.00827531085045
C          -0.55573584734293   -4.91588448196186    0.03749999792666
C          -1.84757716207654   -4.40502698649013    0.06089236000173
C          -1.88491447155632   -3.01908923015425    0.05407463556690
N          -0.06897872645132   -6.16186302671911    0.02798670275239
N          -0.91618192056593   -7.13554440209782    0.04902110883846
C          -0.36689266931703   -8.37303275744493    0.03109359974625
C           0.93510119055495   -8.88596469205010   -0.00807712026578
C           0.76539945833542  -10.26646945469477   -0.00847490637294
N          -0.51979906054131  -10.59724670169981    0.02706040983160
N          -1.18814550929618   -9.45789520289640    0.05057599591306
H          -2.19540066491180   -9.44711746841476    0.07915903748797
H           1.82922560243995   -1.01480692438881   -0.02220839862145
H           1.71822542536504    1.59138154679353   -0.04828418747205
H          -0.76067492721512    2.44124260087968   -0.02155573766662
H          -2.70820442100130   -5.04879230740129    0.08083392768344
H          -2.78905905905014   -2.43539071259180    0.06854385131168
H           1.84312155771636   -8.32127261885905   -0.03199381679058
H           1.51473437440679  -11.03265722887442   -0.03304744131389
