28
         -49.735437574349          0.000240269982
C           0.83738956695534   -0.35234016884387   -0.01219372224622
C           0.52772959634020    1.02190374570847   -0.01726727575224
C          -0.83356337188385    1.10032281463064    0.00113567560628
O          -1.38447000678753   -0.12213792007920    0.01747532604032
C          -0.36847884440095   -1.01820446126428    0.00927991588761
C          -0.66000060453147   -2.41540816058262    0.02201609923584
S           0.61129514108546   -3.58714698489322    0.00784200821510
C          -0.55364310864400   -4.89330750972720    0.03216593691896
C          -1.85116840479561   -4.39992455518165    0.05046892739365
C          -1.90778521227996   -3.01292840423748    0.04464130058442
N          -0.04988682494206   -6.13408460575262    0.02724664330295
N          -0.88474471476926   -7.11825745810135    0.04472341826743
C          -0.32135257615551   -8.34847443248516    0.03578764897213
C           0.99224705334805   -8.83922261290319    0.01132801596511
C           0.84393690249760  -10.21819916937972    0.01532078559714
N          -0.44089444704403  -10.56462473818740    0.03959773332803
N          -1.13250198359976   -9.44325773721201    0.05201097305761
C          -2.56481395016553   -9.45103949153727    0.07819912623095
H           1.80735649959672   -0.80528874549816   -0.02260872825183
H           1.21916477110597    1.83893377065152   -0.03259407476433
H          -1.50221686658264    1.93826630549235    0.00454343466640
H          -2.70374229320289   -5.05460691643409    0.06684317095604
H          -2.81699009451119   -2.43865291631338    0.05605796857497
H           1.88952166738664   -8.25713882023643   -0.00603063121678
H           1.60109772056588  -10.97697160636828    0.00153960478945
H          -2.88988300687752  -10.48900928308860    0.09210939831505
H          -2.96108689726219   -8.94824246673513   -0.80503639362942
H          -2.92837571044589   -8.93418747144078    0.96726771395538
