25
         -45.738098204435          0.000782810750
H           0.93302367572500   -0.22354341482799   -0.07953183481963
C           2.00194813534413   -0.13798074092253   -0.07965055251405
S           2.72123435798600    1.41171683091420   -0.09158484639263
C           4.31663109860366    0.69502387809897   -0.08589982395067
C           4.23888986328993   -0.68796622277795   -0.07509734238798
C           2.92154987968431   -1.15126683657337   -0.07169955942272
N           5.34911384523693    1.55224933896197   -0.09099990407441
N           6.53752243643194    1.06686630501295   -0.09214760834490
C           7.55555692607212    1.94789693814817   -0.09490746800047
C           7.69137799218535    3.33991190535320   -0.09369451737246
C           9.06425310454601    3.55350465375167   -0.09718056278849
N           9.73872239408356    2.40903389640943   -0.10207687360167
N           8.83231013980645    1.44507729840645   -0.09977239452110
C           9.16365457808474    0.11102891959837   -0.10309319697425
C          10.41923809270295   -0.42677734500134   -0.10975149714783
C          10.38877686790588   -1.83666769978479   -0.11116916689152
C           9.12549297320816   -2.33226593082483   -0.10650346959349
S           7.92258441118006   -1.09238304005353   -0.09871181809150
H           5.11743295501367   -1.30668107860857   -0.06996673783631
H           2.65061981258687   -2.19209872814365   -0.06370773548735
H           6.89765825242914    4.05647746856934   -0.09024793914079
H           9.59882274118364    4.48264262927495   -0.09762694412358
H          11.30785095006382    0.17590648109829   -0.11296369579037
H          11.27358208852888   -2.44727755675245   -0.11592460184193
H           8.81873242811662   -3.35910794932697   -0.10663990889001
