25
         -50.361884910891          0.000608310006
C           0.83224807621364   -0.37542203636984   -0.03113182320240
C           0.58885426304471    0.97055729739409   -0.03580670250533
C          -0.81709182309650    1.07845213653625   -0.00830341504792
N          -1.38392523662487   -0.10403981894367    0.01298343410709
N          -0.38095627526895   -0.99223590656655   -0.00143313885032
C          -0.63454176128232   -2.33954981377143    0.01239678194988
S           0.64608866221731   -3.49785037292408   -0.00445974760817
C          -0.52200789901120   -4.80540083909366    0.02505019973501
C          -1.81969487085381   -4.31407414145890    0.04649992977682
C          -1.88350704342428   -2.92637622527650    0.03952412180318
N          -0.01961521875410   -6.04373074632251    0.02200811922389
N          -0.85631273997375   -7.02408008092275    0.04201951899039
C          -0.29922887543166   -8.25602771791216    0.03697206020632
C           0.99807718656721   -8.78797747895008    0.01561908860319
C           0.82317992826140  -10.16579388780876    0.02412914317472
N          -0.46632129700785  -10.49153975652038    0.04798245820566
N          -1.09463734191420   -9.35392246993104    0.05532592714301
F          -2.45015290132186   -9.34122715139420    0.07929108575192
H           1.74356465913763   -0.93789082785315   -0.04584859066595
H           1.30341379297268    1.76664978713310   -0.05633108674597
H          -1.41742671420836    1.96596926435301   -0.00257962935525
H          -2.66752091817830   -4.97470725172312    0.06611754444155
H          -2.78453554305942   -2.34183856904285    0.05274176586478
H           1.90840053545095   -8.22664559880658   -0.00279097066664
H           1.56348935554579  -10.94017779382434    0.01376392567068
