32
         -59.875958387944          0.000387042816
C           0.85771402154585   -0.34264080595816   -0.05769683136168
C           0.54685449366928    1.03102125265628   -0.06395681478753
C          -0.81450034415307    1.10827197790777   -0.02587047488102
O          -1.36374494114723   -0.11383399857777    0.00339345401410
C          -0.34759662016944   -1.00951244060428   -0.01585493496382
C          -0.64107509385968   -2.40570508125131    0.00675503165469
S           0.62299420810483   -3.58398014132345   -0.02140857252543
C          -0.54920792489959   -4.88407628784408    0.02515069775685
C          -1.84439989789380   -4.38209886437684    0.06056865879480
C          -1.89297385085039   -2.99629899293912    0.05005310195137
N          -0.05578755062556   -6.12718192125417    0.01778195520566
N          -0.90027748999728   -7.10462314568464    0.05225729624933
C          -0.34188852426765   -8.33488012880098    0.03896442085535
C           0.97269033378360   -8.81359819182437   -0.00691066356062
C           0.84797550322469  -10.19630634933813    0.00425226362292
N          -0.42517628514183  -10.56831019882644    0.05272552546753
N          -1.14228037918445   -9.44716649672445    0.07360340380417
C          -2.51704692840879   -9.51571231613295    0.12415786919040
C          -3.51695893325856   -8.57326775831505    0.15527864756655
N          -4.71904814623923   -9.19655409694168    0.20244920531038
C          -4.47140244527405  -10.47679368328751    0.20057773839536
N          -3.14211120954227  -10.73194258614913    0.15367627566813
H          -2.65317584179211  -11.61291201251200    0.14069900297838
H           1.82778274796612   -0.79494571511857   -0.08041192323984
H           1.23700341542480    1.84875660467308   -0.09282578881731
H          -1.48336839642036    1.94609465263078   -0.01621797657672
H          -2.70140568487046   -5.02995125691003    0.09193817146979
H          -2.79834086106340   -2.41659180810473    0.07252664786198
H           1.86097374702833   -8.21922943333014   -0.04246935294871
H           1.61844858787426  -10.94149399881409   -0.02053879919468
H          -3.42723703683128   -7.50870933582516    0.14621658473283
H          -5.21748267273142  -11.24462744109871    0.23199618030679
