19
         -37.423027259746          0.000412578421
H           0.85669884613728   -0.20957230516908   -0.07505833026716
C           1.92729273933381   -0.14379811596087   -0.07898149289605
S           2.67576417927417    1.38912925748365   -0.08072272109546
C           4.25597623881045    0.63907763793284   -0.08721805491473
C           4.15015935940530   -0.74431626154942   -0.08773683326095
C           2.82541411409949   -1.17910722067524   -0.08299298137960
N           5.31107521706749    1.46570447673455   -0.09005514284201
N           6.48006273158697    0.92690070268055   -0.09613121734712
C           7.51805353732612    1.79484277835907   -0.09727092178662
C           7.67063807250339    3.17590547986515   -0.08980486439026
C           9.05535824884833    3.38424717776440   -0.09551108403507
N           9.72305101003221    2.25092767686844   -0.10571067765924
N           8.80206217345537    1.27837000728360   -0.10670822231867
C           9.11218882403970   -0.01305145199626   -0.11607135093971
N           9.36830875320075   -1.12760190047416   -0.12388298927376
H           5.01686122945158   -1.38025260886392   -0.09139801635811
H           2.53145487423378   -2.21345741323600   -0.08251486932073
H           6.88626107868613    3.90311970874549   -0.08137648679744
H           9.58851877250768    4.31447237420720   -0.09267374311732
