27
         -49.607531124454          0.000406751509
C           0.80432954357654   -0.38371322553649   -0.03219210843160
C           0.54436279697674    0.96064166793408   -0.05011712280815
C          -0.86099579427342    1.05109856445877   -0.04263421455866
N          -1.41358273014760   -0.13981487970566   -0.02157005098159
N          -0.39998689802934   -1.01422910501175   -0.01537869553608
C          -0.64141444988767   -2.36614393134028    0.00581547862603
S           0.64999822712192   -3.51613461881371   -0.01471884399773
C          -0.50546038182578   -4.83373578669977    0.02034583255056
C          -1.80414811736951   -4.35318339527190    0.04993941604644
C          -1.88115607195029   -2.96313067444500    0.04332560228894
N           0.01125042299351   -6.07037844854593    0.04205837403571
N          -0.82030305874374   -7.05733725317331    0.01161289916197
C          -0.28062331238986   -8.29208485789822    0.03977480127171
C           1.00886673543651   -8.85502280615410    0.01648263792251
C           0.79253807605772  -10.21780121231152   -0.01371993114402
N          -0.51672544959584  -10.50559850091887   -0.00703211954870
N          -1.13501853208946   -9.35610862814504    0.02684468464569
N          -2.50196305204396   -9.27080719643961    0.12975321965582
H           1.72229503129232   -0.93532142889889   -0.02935142442814
H           1.24950060102380    1.76525147362772   -0.06599721069847
H          -1.47333155798720    1.93042830204495   -0.05165239701781
H          -2.65059191179395   -5.01448938287254    0.08569040860620
H          -2.78878112151303   -2.38903736087421    0.06366719285707
H           1.93415674579030   -8.31902974410397    0.01341255093234
H           1.50601967673829  -11.01646088240276   -0.04447495100513
H          -2.94121449634784  -10.05393536748428   -0.34348284778342
H          -2.80554092101920   -8.36769132101782   -0.22273118066192
