21
         -40.863947077836          0.000424798285
N           1.02656984333729   -0.25320976349350   -0.16988570747353
C           2.36987359048040   -0.09299527110786   -0.09060396650588
S           3.08052591449251    1.48335444301677   -0.07495937709642
C           4.69683714467184    0.77926093926277   -0.05004695646739
C           4.62256395337119   -0.60906520708227   -0.05055429421936
C           3.32578557886184   -1.09689827963210   -0.07325895634080
N           5.71803515638585    1.62745704905199   -0.04015396540055
N           6.91064185972896    1.12115488375397   -0.02147636134265
C           7.91761301506569    2.02189327673673   -0.01533221097141
C           8.03195116626986    3.40620136137919   -0.01500559388362
C           9.41033766539440    3.65406160800948   -0.00563031355298
N          10.11321637573868    2.54294182562161   -0.00056390708595
N           9.21658457814405    1.54207540290104   -0.00593698461341
C           9.55976214555677    0.26124562378381   -0.00469989820870
N           9.84441954912089   -0.84708266498206   -0.00350395106309
H           0.43557838517635    0.54311086569054   -0.00644242949144
H           0.64203309498996   -1.16191920928611    0.02576497176625
H           5.51355708378385   -1.21075346233109   -0.03490646057089
H           3.07009902198291   -2.14129369543469   -0.07964793575711
H           7.22777641578025    4.11148434981987   -0.02055292331041
H           9.91540846166661    4.60014592432183   -0.00271277841076
