28
         -49.390546874497          0.000748159692
C          -1.21907387645095    0.09109653082078    0.01032888528510
N          -0.48476636864873    1.22214929444195   -0.00980004924241
C           0.76535227192472    0.84298049197072   -0.02532938894164
N           0.88257428837557   -0.50279737911647   -0.01631793651841
H           1.72693994970740   -1.05198800010150   -0.02433644489982
C          -0.39050046452094   -1.01936243424734    0.00681397665786
C          -0.67556610332044   -2.41409145012978    0.02049903586572
S           0.59796055761300   -3.59459912655151    0.00505180780269
C          -0.56329424879429   -4.90168514807883    0.03107603178385
C          -1.85911884680401   -4.40610774086835    0.05058878295156
C          -1.91940275891670   -3.01877487357456    0.04433450708183
N          -0.05408781600814   -6.13905907342832    0.02495616542850
N          -0.88572511175934   -7.12714711865411    0.04385632968905
C          -0.31980703555458   -8.35565704918965    0.03293517487251
C           0.99509872410919   -8.84366602994197    0.00730050622108
C           0.84965785032965  -10.22307630821958    0.01004375876704
N          -0.43448109470343  -10.57176438115193    0.03491703273004
N          -1.12887510541546   -9.45225791948483    0.04883095023039
C          -2.56147911868962   -9.46403235596164    0.07552278090789
H          -2.28908211324864    0.12698402639894    0.02577031568916
H           1.60462049802406    1.50890410494927   -0.04314832732270
H          -2.70981640742526   -5.06318354596519    0.06804190725981
H          -2.83433903432764   -2.45450459474139    0.05680036763583
H           1.89106900117505   -8.25926580677827   -0.00997953551853
H           1.60809139123704  -10.98080974723738   -0.00494838283661
H          -2.88390531325290  -10.50289258692012    0.08983417081649
H          -2.95964691608367   -8.96269487748858   -0.80781392511098
H          -2.92626679857096   -8.94794690075019    0.96464150271482
