27
         -49.997268762519          0.000756570917
N           0.96678367013215   -0.26939122049988   -0.21445134540153
C           2.31814439450121   -0.11699962135507   -0.13375537317207
S           3.03646185973531    1.45681916930630   -0.12549841980563
C           4.64951834253647    0.74696550953900   -0.10365568899608
C           4.57003722891723   -0.63651019454523   -0.10146994164550
C           3.26709091263340   -1.12148766949076   -0.11811939875027
N           5.67258661538998    1.60053853534031   -0.09224283484646
N           6.86482648699608    1.09933357028981   -0.06431532310053
C           7.86351799351460    2.00986501610272   -0.04905892884156
C           7.91649282703230    3.40570652994237   -0.04759395486187
C           9.27392046806727    3.70943039704369   -0.02046059987392
N          10.01841283484069    2.61509708958215   -0.00631779578584
N           9.17062487399097    1.58643873341945   -0.02320857161953
C           9.66453683542205    0.29984126603228   -0.01508125079249
C          10.96932968181043   -0.11641817084056    0.00617675770505
C          10.91099635599252   -1.52906227067342    0.00580521808647
C           9.59014890889047   -1.85456032138550   -0.01540917297363
O           8.82449677452912   -0.74527724343050   -0.02819652423367
H           0.39505916808168    0.53426583737213   -0.01549998525131
H           0.58564010288196   -1.16205906064991    0.05179948307135
H           5.45824782607280   -1.24202379537641   -0.08801148441361
H           3.00777302742387   -2.16526613529321   -0.12138145257886
H           7.07901838534654    4.07088035117232   -0.06367507737814
H           9.74483081430350    4.67269998904948   -0.01039538434372
H          11.83196267877347    0.51445582588851    0.01981435163386
H          11.74096369995509   -2.20483501377200    0.01943840077796
H           9.08135723222883   -2.79733710276788   -0.02344570260856
