27
         -49.656167144876          0.000532797460
N           0.84560725963978   -0.13077894544116   -0.11214122000472
C           2.19713558605644   -0.00395499160287   -0.01633397831572
S           2.94549237533801    1.55621087003278   -0.00382113767414
C           4.54618084106326    0.81698072851351    0.03285633785891
C           4.43847025462171   -0.56544419472950    0.03869365297858
C           3.12759215396256   -1.02564780187171    0.01130323315427
N           5.57949926787003    1.65624936660884    0.04414891860120
N           6.77002050986963    1.14948196336946    0.07073437662471
C           7.77070424029894    2.06011549130436    0.07904538317292
C           7.82855249641342    3.45711032654494    0.07698882139218
C           9.18519843341985    3.75753082218705    0.09243721040368
N           9.92687004911688    2.65843384301134    0.10299018813889
N           9.07243112026061    1.63389528679007    0.09535478318143
C           9.55340688383669    0.34328448152888    0.10065730621722
C           8.95742333903949   -0.89425272383578    0.09163483162680
N           9.91518920766782   -1.85393146715176    0.10315093690709
C          11.06052367380165   -1.23116117179982    0.11853579176492
N          10.90146722286184    0.11450805868615    0.11783514961485
H          11.59183990726495    0.84830304267738    0.12667249508471
H           0.28441270054632    0.68071793192670    0.08339165403619
H           0.44523770722281   -1.02148569172147    0.13252723876906
H           5.30887341332642   -1.19555872934168    0.06283361942644
H           2.85065606490040   -2.06479607628885    0.00831315941824
H           6.99430070367201    4.12624821076958    0.06625985359446
H           9.65992148923861    4.71918951893037    0.09611992345503
H           7.91514006746370   -1.12865391772536    0.07739434635993
H          12.01830303122621   -1.71035423137146    0.13032712421286
