25
         -46.560808265646          0.000196843626
C           0.85178985417031   -0.33637483974711   -0.02018147242176
C           0.54514929404582    1.03827190492588   -0.02490508023095
C          -0.81613171306639    1.11957733985031   -0.00041451684699
O          -1.36949450520958   -0.10123904128377    0.01944064242621
C          -0.35567349936235   -0.99964311108262    0.00722824660143
C          -0.65081433794647   -2.39574191237161    0.02214228457258
S           0.61548014796104   -3.57166097631264    0.00246987679181
C          -0.55455936522313   -4.87310312513874    0.03230835128639
C          -1.85075985790586   -4.37454518590193    0.05680457854333
C          -1.90180126140015   -2.98814438129859    0.05104143361923
N          -0.05772251403880   -6.11592311783239    0.02589743342259
N          -0.89709615985887   -7.09587894769318    0.04459387230333
C          -0.33833217550036   -8.32955339693980    0.03499010140642
C           0.96740807155691   -8.83342599126524    0.00995876646557
C           0.80738938108430  -10.21514159629137    0.01345426802406
N          -0.47570524148281  -10.55481961967195    0.03819440055534
N          -1.15213105431968   -9.42010326154954    0.05119381973476
H          -2.15963239017741   -9.41594186409220    0.07032191965689
H           1.82066275403072   -0.79152526582451   -0.03461211507012
H           1.23819294442271    1.85378827118936   -0.04396239680611
H          -1.48283937151158    1.95906091260455    0.00538183984244
H          -2.70510129748633   -5.02668174858364    0.07754198988506
H          -2.80828436399760   -2.40979665425007    0.06669845682671
H           1.87159241281009   -8.26241185719983   -0.00762599614838
H           1.56219424840538  -10.97620253423942   -0.00099070443999
