25
         -43.312388390317          0.000438706043
C           1.17194387090906   -0.14030346337844    0.35412624624344
O           2.42794443752223   -0.10861083012691   -0.28642801778587
C           2.91539051365801    1.08919517764918   -0.61751948317405
S           2.08492358702474    2.57724097632513   -0.30214185932866
C           3.39991775287949    3.48795022738458   -1.02882812974995
C           4.39596070340903    2.63644058084160   -1.47322720720297
C           4.12576170270847    1.28968808222604   -1.24337644660380
N           3.25624829185529    4.81791575340405   -1.04783708934390
N           4.21095684620538    5.51030700726338   -1.57140648330004
C           4.02499181809087    6.85159157139056   -1.56884834877812
C           3.01885031153171    7.71977358217010   -1.12416362050073
C           3.49062332936456    8.98512825064789   -1.44321418025133
N           4.68124723554786    8.92171222150644   -2.03291735685699
N           4.99540804075144    7.64284509904946   -2.10534691254157
C           6.22863767001423    7.20912824609526   -2.69137838055332
H           0.95432539932259   -1.18915311754692    0.54383515853050
H           0.39670286488952    0.29293932531047   -0.28512511971098
H           1.20104420070062    0.41243004094231    1.29804262617689
H           5.28389732956029    3.01281720617891   -1.94777108968878
H           4.77385669099428    0.47713276051832   -1.51431915627390
H           2.10143817993270    7.44347042290318   -0.64836317047485
H           3.02826617258959    9.93775470846272   -1.27535054795470
H           6.76226614403484    8.09325161777780   -3.03297286803848
H           6.03197000400341    6.54317207743176   -3.53257693374221
H           6.82870690249985    6.67322247557327   -1.95455162909559
