25
         -46.558840499337          0.000861013755
H           0.86449551199024   -0.28711750798751   -0.03524796788714
C           1.93416773663122   -0.21114047352414   -0.03462829508496
S           2.66750664032755    1.33313814681132   -0.03587321103776
C           4.25504079348627    0.60221330969424   -0.03414176274672
C           4.16530652703963   -0.77894238751110   -0.03228569078764
C           2.84436882719592   -1.23234187828907   -0.03251612929087
N           5.30699261672188    1.44004499037449   -0.03509852707102
N           6.47560398751332    0.89991557454181   -0.03437010278423
C           7.51320430369231    1.76400576765863   -0.03580125252627
C           7.62797535283887    3.15751646440128   -0.03687671495369
C           8.99649451864083    3.39969739005950   -0.03842327815942
N           9.69011492083941    2.27059702923789   -0.03776347512133
N           8.80134088444867    1.28249574031633   -0.03640235076570
C           9.23741723233033   -0.02537414126219   -0.03590444910262
C          10.52343861152551   -0.49787898483133   -0.03618542862000
C          10.40458829563286   -1.90599437131235   -0.03567687014182
C           9.07015772646871   -2.17404889924306   -0.03435665176317
O           8.35281637564708   -1.03388890911109   -0.03520717757272
H           5.04182183328039   -1.40075566127429   -0.03081895526772
H           2.56443878378572   -2.27079773196903   -0.03126724046002
H           6.81972460576702    3.85797673465635   -0.03667139423196
H           9.51216375386194    4.33951227114169   -0.03963050620632
H          11.41254587828110    0.09547103514527   -0.03699655753894
H          11.20478303833731   -2.61673546459031   -0.03586326530731
H           8.52231124371593   -3.09482804313333   -0.03349274557079
