22
         -39.751004371177          0.000825922121
N           0.88782675810550   -0.18906416591304   -0.21092574794609
C           2.23793580611547   -0.02393712137091   -0.09784337736257
S           2.93984695127897    1.55833196806205   -0.05894844045572
C           4.55983951100602    0.86736168222468   -0.01637047998119
C           4.49463693427808   -0.51504173507143   -0.02695012281979
C           3.19616349694928   -1.01577128618238   -0.07207616586691
N           5.57229697792072    1.73706598787066    0.02754207877766
N           6.77168225372493    1.25661240271062    0.05672235771432
C           7.77313520658093    2.16438395777105    0.08089612591255
C           7.90422296899727    3.56019887610200   -0.00657509191288
C           9.26858276700919    3.78209581012869    0.00015157583429
N           9.95153862292200    2.63451677597120    0.08844767569430
N           9.04826250796870    1.68820026932587    0.13789847484139
N           9.38626415136161    0.36456840687912    0.31390414284339
H           0.30782264390816    0.60386003110927    0.00753982924409
H           0.51682607316375   -1.08906557309979    0.04655119722461
H           5.38266936176377   -1.12037167186758    0.00407223202315
H           2.95176894593931   -2.06313936210820   -0.08748362845015
H           7.10717842677202    4.27036681125353   -0.07203869620083
H           9.80270376081865    4.70917833573540   -0.05885597121619
H          10.23425458346108    0.14651119834555   -0.20031635584834
H           8.59421128995446   -0.20348159787665    0.02302838795098
