25
         -46.215883583111          0.000223508030
C          -1.21110915393660    0.10056308002620    0.01533160637531
N          -0.47448823608183    1.22955318255731   -0.00632671701553
C           0.77498502517744    0.84747710289442   -0.02844645408421
N           0.88927001185791   -0.49804946168493   -0.02234584260874
H           1.73298092347956   -1.04819201924085   -0.03554563586097
C          -0.38479713697202   -1.01204019110482    0.00603726886699
C          -0.67310316364582   -2.40569362150460    0.01935954694989
S           0.59581532979857   -3.58975159441205   -0.00217884660809
C          -0.56988181817141   -4.89256998843013    0.02684868192885
C          -1.86466455838827   -4.39272978411147    0.05231829766272
C          -1.91986594956515   -3.00599531139886    0.04814371310674
N          -0.06454744197776   -6.13051643214009    0.01984116853127
N          -0.89677500404059   -7.11714754587689    0.03665126227069
C          -0.32906353698307   -8.34619200149809    0.02793815318276
C           0.98070231932572   -8.84012434378844    0.00694341179592
C           0.83119493715966  -10.22291086814878    0.00979407480635
N          -0.44935273325400  -10.57216830267756    0.02988110457381
N          -1.13457879487153   -9.44285897279771    0.04109685124163
H          -2.14217264187943   -9.44687576907535    0.05678204897763
H          -2.28086222395383    0.13934108920188    0.03598681053777
H           1.61570660640404    1.51132927384008   -0.04920185338870
H          -2.71756417321314   -5.04672376853064    0.07283347348181
H          -2.83231413918702   -2.43814039374202    0.06504125777902
H           1.88096228620048   -8.26273489930227   -0.00748476772141
H           1.59186326671801  -10.97809845905433   -0.00236861478149
