27
         -49.971743885348          0.000102762744
C           0.81725936880932   -0.33241567556631   -0.01633658046882
C           0.48167957729702    1.03594664658138   -0.03150918795501
C          -0.88067431916298    1.08910775158084   -0.01647036155707
O          -1.40851486752616   -0.14351452345832    0.00692337929915
C          -0.37574635811285   -1.02050694454747    0.00707715293313
C          -0.64623983825512   -2.42187390299872    0.02941651447693
S           0.63815487548860   -3.58071091951687    0.01044726389452
C          -0.51195140104815   -4.89863483021493    0.04356329273208
C          -1.81427499955886   -4.41930666919817    0.07299878561174
C          -1.88635020393034   -3.03287913448474    0.06659288866834
N          -0.00081815056298   -6.13750425466098    0.06296356057198
N          -0.83681954228445   -7.12121096237733    0.02670409266281
C          -0.30009617142428   -8.35799062739613    0.04897176618287
C           0.98770399680084   -8.92357195241013    0.01881010291172
C           0.76798000117420  -10.28583225589204   -0.02114305617950
N          -0.54159157843393  -10.57100377822200   -0.01399008568669
N          -1.15685232820475   -9.41951342477422    0.03002140880538
N          -2.52411749620380   -9.33008793238433    0.13586255487477
H           1.79574986122720   -0.76667876086812   -0.02095273032990
H           1.15753825831165    1.86583507417247   -0.05066423049298
H          -1.56530961495274    1.91404275311623   -0.02017478150786
H          -2.66122588568012   -5.08048456761057    0.10785805858994
H          -2.80195421501826   -2.46924015774903    0.08705647253897
H           1.91407816547523   -8.38950864701115    0.01761693453340
H           1.47986649829470  -11.08565352092477   -0.05990865726387
H          -2.96741812208265  -10.09743153729678   -0.35867058874322
H          -2.81966551043580   -8.41653724588747   -0.19682396910264
