25
         -50.381476282226          0.000327535157
C          -1.21941920767214    0.10235757734799    0.00966171536800
N          -0.49156195313632    1.23579136455499   -0.01271097002466
C           0.76127891484436    0.86332436852853   -0.03203995734150
N           0.88623347696521   -0.48076264704322   -0.02329955561824
H           1.73471973321646   -1.02369604047940   -0.03406837550692
C          -0.38410395436882   -1.00474630856197    0.00383328895887
C          -0.66357079987730   -2.39922437272248    0.01908119846798
S           0.61031775712314   -3.57573549244741    0.00088719151155
C          -0.55037005824543   -4.88345037868265    0.03071106938639
C          -1.84938524834427   -4.38980752151204    0.05400952169980
C          -1.90988925358693   -3.00512723557632    0.04738889949083
N          -0.04444408518576   -6.11883520250579    0.02493440797625
N          -0.87758332097307   -7.10393623538521    0.04416014264900
C          -0.31394234903338   -8.33251076996386    0.03503330915959
C           0.98644328649781   -8.85708018656903    0.01048699321457
C           0.81946619609698  -10.23587523480040    0.01469407601422
N          -0.46794095368170  -10.56945470840776    0.03966138412132
N          -1.10298666792249   -9.43496137490859    0.05121024007643
F          -2.45897455317765   -9.43056369254725    0.07671057798376
H          -2.28944542531279    0.13302739983925    0.02831391218512
H           1.59639175398567    1.53418888678801   -0.05252107312096
H          -2.69779236311195   -5.04977310096011    0.07445821595872
H          -2.82408598194613   -2.44028340055053    0.06226480445132
H           1.89351584031763   -8.29034570224654   -0.00731994122864
H           1.56435921652892  -11.00580999118853    0.00084892416726
