24
         -43.544963313187          0.000539778040
C           2.68432459699662   -1.61525325519578    0.09689965214718
O           2.50653335829148   -0.21811396366281   -0.00730598942320
C           3.08822246366104    0.39433623982200   -1.05187113796260
S           2.87689142263818    2.10549365155245   -1.16914951861360
C           3.83869925272018    2.13656685508776   -2.64260021117694
C           4.26894520188451    0.86627128798136   -2.97274539320985
C           3.84824731507116   -0.11871755483114   -2.07508180915145
N           4.03895362286472    3.33895243920354   -3.20073915150611
N           4.71232808569366    3.37742262302110   -4.30066477664294
C           4.90541474326276    4.60334274077132   -4.83461276535135
C           4.49918103795373    5.92108933965076   -4.56178748639730
C           5.02965597063370    6.66924387842219   -5.59458828331544
N           5.71672913834048    5.90263998111944   -6.45129343604664
N           5.63374960305324    4.68436174031007   -5.98382707128194
N           6.29977257024685    3.63448694479369   -6.57285726532082
H           2.14889012613921   -1.91423715361177    0.99548170108946
H           3.74309007240986   -1.87144639531511    0.19666381550976
H           2.26478498383065   -2.13222141676143   -0.77104148413878
H           4.87919621144116    0.67845354335350   -3.83748824357746
H           4.09668858209271   -1.15921875188877   -2.17931764698214
H           3.90327873263847    6.24156610218649   -3.73380314853233
H           4.95386279011273    7.72249104971482   -5.77589039468133
H           6.34323600202366    3.76770643406370   -7.57822947710996
H           5.84018411599861    2.76814364021284   -6.30742047832328
