25
         -50.377814137663          0.000610272216
C           0.83694671285124   -0.38912361488419   -0.02874925763676
C           0.59862174223803    0.95819496251957   -0.03146699236714
C          -0.80634007687259    1.07146383370288   -0.00394769531287
N          -1.37779078171055   -0.10930814024659    0.01673527199836
N          -0.37846842808618   -1.00106419182342    0.00059063898261
C          -0.63889465856437   -2.34744488356494    0.01342669264227
S           0.63608278658013   -3.51294324771103   -0.00578441029232
C          -0.53860667135558   -4.81437351279689    0.02417672324838
C          -1.83328443109247   -4.31622921242011    0.04731948875948
C          -1.89005192450804   -2.92767618694692    0.04145622431725
N          -0.04028264446340   -6.05509383192443    0.01981111440373
N          -0.88271142661003   -7.03134566847275    0.04063909208831
C          -0.33640594950898   -8.26673677941247    0.03465187214607
C           0.94381511923635   -8.81207963139703    0.01137575204983
N           0.88540327552162  -10.15762242026532    0.01685364344582
C          -0.38353591010458  -10.48213506854989    0.04389670944762
N          -1.14689312804883   -9.37658834206466    0.05496054133923
F          -2.50963997693366   -9.35703525771217    0.08207572023348
H           1.74553153390923   -0.95576879052070   -0.04440565890383
H           1.31602166278212    1.75171605579904   -0.05123645991979
H          -1.40345704350944    1.96113687556221    0.00326486822039
H          -2.68500915106665   -4.97152453267728    0.06737720387999
H          -2.78839463535172   -2.33885237286832    0.05608258989533
H           1.87678798037933   -8.28688704076306   -0.00912430610999
H          -0.77768397571082  -11.47745900056167    0.05539063344460
