25
         -45.755813103715          0.000183997437
C           0.91310490704644   -0.47043461927917   -0.01336324722251
C           0.85157096591893    0.93272177372657   -0.02825560417187
C          -0.42496927469826    1.40326525088120   -0.01510741550462
S          -1.58603842799287    0.13959762956383    0.01616842655232
C          -0.32564703206530   -1.06452565991549    0.01120637411711
C          -0.63522298741135   -2.45296933799457    0.02843325810648
S           0.61956841754087   -3.64999288683213    0.01037853208818
C          -0.56316170587946   -4.93732736190470    0.04090084427513
C          -1.85379173589432   -4.42467652796889    0.06459947052857
C          -1.88972854207031   -3.03808994786601    0.05710962439020
N          -0.07676585647446   -6.18418091573956    0.02939439028976
N          -0.92876797242444   -7.15552494623898    0.05616384859764
C          -0.39303015463539   -8.39520066417403    0.03290434891825
C           0.89235905464411   -8.93088971612644   -0.02007555505674
N           0.83140216495885  -10.27458497674592   -0.02386938578743
C          -0.44204657425511  -10.58359952854584    0.02487102645202
N          -1.22842314046574   -9.48942218845870    0.06078480410563
H          -2.23308418751212   -9.44266372359931    0.10044203097478
H           1.82604648588301   -1.03829204575603   -0.02023433433005
H           1.71854909970960    1.56821362783652   -0.04805215773840
H          -0.75944169024709    2.42146276600151   -0.02213913686949
H          -2.71594619361103   -5.06636266009690    0.08493733737105
H          -2.79354420510400   -2.45377793280813    0.07164403399881
H           1.82436487056263   -8.40481428494035   -0.05473951331892
H          -0.82165628552291  -11.58610112301825    0.03508799923416
