27
         -49.988018629836          0.000490213034
C           0.81704382767451   -0.36299039542921   -0.05192856728368
C           0.48375010758729    1.00595623554069   -0.03658681278361
C          -0.87772035035348    1.06072606495203    0.01293136125540
O          -1.40719160430443   -0.17125654379124    0.02923645977676
C          -0.37625026834624   -1.04960838123680   -0.01018037616734
C          -0.64834822646255   -2.45088058925846   -0.00102552590768
S           0.63315671552770   -3.61126209782035   -0.05523873089836
C          -0.51790957766807   -4.92770044564271   -0.00597173243432
C          -1.81884817187495   -4.44635641618393    0.04899104562412
C          -1.88894250998179   -3.05987836279473    0.05224399739121
N          -0.00531526935422   -6.16612060083065   -0.01072034671317
N          -0.84174805676655   -7.15051396525430    0.00537539902181
C          -0.31270896430688   -8.39029212105299    0.01601532588179
C           0.95288324039968   -8.97844281174832    0.02581272114373
N           0.83714767219462  -10.31275960005923    0.02174881037236
C          -0.45551421183449  -10.57653211833568    0.02266777112898
N          -1.19317863471651   -9.45585173370305    0.01639018679743
N          -2.57274037971173   -9.33015873814850    0.08301951121394
H           1.79420405383380   -0.79877397198220   -0.08784139172115
H           1.16014659657350    1.83525541743037   -0.05888053606748
H          -1.56079796993692    1.88653252234058    0.03990288802314
H          -2.66811989744352   -5.10427419603213    0.08965485671877
H          -2.80324819947101   -2.49529622613347    0.09266320717337
H           1.90485577196987   -8.48837376997601    0.03673120093716
H          -0.87815032931106  -11.56099254639138    0.01325375318728
H          -3.01688208735319   -9.72975405405161   -0.74148943572980
H          -2.76924327656356   -8.33041055440629    0.13134496005938
