21
         -40.884336909403          0.000556558152
N           0.89974305453080   -0.15317641566337   -0.19572150246402
C           2.24523277389424   -0.00094265434295   -0.10923591119073
S           2.96467891271217    1.57247833900421   -0.09539599228479
C           4.57656137693079    0.86043049393342   -0.06403022062002
C           4.49528939362797   -0.52624629766839   -0.06055883683775
C           3.19505344369475   -1.00849603409054   -0.08577889725445
N           5.60276040220298    1.70547087842734   -0.05458170098769
N           6.79123152618998    1.19046639771710   -0.03271326388936
C           7.80816085605483    2.07823320412360   -0.02780402725776
C           7.94642761436997    3.45524062514574   -0.03143257743390
N           9.25690036537307    3.79951095704203   -0.02227001671286
C           9.93610537252471    2.69523800710419   -0.01336800674314
N           9.11681446532937    1.59099385262153   -0.01540671874074
C           9.48727965261708    0.32067327978746   -0.00920913616768
N           9.83601609601842   -0.76925917981696   -0.00357389622817
H           0.31586788835937    0.64736262964187   -0.02605141836630
H           0.51072687112514   -1.05724675934029    0.01381507902508
H           5.38233577619454   -1.13347709282156   -0.04030436022418
H           2.93509947453013   -2.05189236661767   -0.09028279321078
H           7.16947893088996    4.19179130750281   -0.03957796510339
H          11.00501575282982    2.61825682831045   -0.00550783730740
