32
         -59.410102844571          0.000320632389
C           0.87507078558431   -0.47845369415659   -0.05824761417940
C           0.80947994112119    0.92452015970895   -0.05670052270632
C          -0.46693048267800    1.39113642858171    0.00899283023768
S          -1.62275728449639    0.12373551942238    0.07048390106066
C          -0.36042788192820   -1.07676419927754    0.00678921343563
C          -0.66413976375051   -2.46643113888681    0.02492561042735
S           0.59601341276405   -3.65615207726424   -0.03726899587649
C          -0.57856961718444   -4.94981927451503    0.02603891200215
C          -1.87105954348364   -4.44540673160039    0.09118445822779
C          -1.91428368745557   -3.05899324305555    0.09033323617964
N          -0.08510442606450   -6.19308725571688    0.00419481183601
N          -0.93128616804335   -7.16862750034755    0.04852480985718
C          -0.37842668535341   -8.39883886002056    0.03111064305883
C           0.92800317276365   -8.87749905186319   -0.00126099962678
N           0.93244282578652  -10.22315665338971    0.00588639880682
C          -0.32130574038167  -10.59243273016930    0.04138305067962
N          -1.17738720333127   -9.53519279424851    0.05955201743498
C          -2.55719442150494   -9.60677487484362    0.09648171571156
C          -3.37710107823701  -10.70262289298363    0.16049528744368
C          -4.69469700893454  -10.18820659852206    0.17052022429093
C          -4.57235617912923   -8.83495513353041    0.11228022594535
O          -3.27678061993460   -8.47579676697253    0.06700012767393
H           1.78872919230374   -1.04324136921257   -0.10498608614691
H           1.67346602606779    1.56276449940580   -0.10250607425518
H          -0.80386498781759    2.40842126791578    0.02508249066197
H          -2.72524332821534   -5.09642212145161    0.13623483585333
H          -2.81976290820640   -2.47868376897047    0.13551709906893
H           1.83203566262621   -8.30418010432517   -0.02688708034955
H          -0.65143236938751  -11.61094776274349    0.05373667819996
H          -3.08766893184077  -11.73159672136273    0.19697517637020
H          -5.60122550937840  -10.75508763358534    0.21517054496303
H          -5.29846519227922   -8.04766692202019    0.09729307371269
