32
         -59.890730461941          0.000290042794
C          -1.23218986367929    0.06444283690867    0.04691566480441
N          -0.49751816077392    1.19518069149926    0.02561749451954
C           0.75195396239947    0.81505673320002   -0.01587286737779
N           0.86797428281493   -0.53059232518366   -0.02252122684969
H           1.71202708560808   -1.07955388597080   -0.05113595597206
C          -0.40483438286379   -1.04669316167469    0.01763137347770
C          -0.69134995628154   -2.44103504971847    0.02455018444351
S           0.57993200703769   -3.62376331798667   -0.01438511045629
C          -0.58357410063088   -4.92779996548994    0.02026449024831
C          -1.87876002580090   -4.43120903701265    0.05913916488776
C          -1.93614884001614   -3.04397596020039    0.06147144019286
N          -0.07659088560687   -6.16529656060050    0.00616081890833
N          -0.91507121345091   -7.14821119031934    0.03122946793245
C          -0.35413428649987   -8.37436297324006    0.02165261712407
C           0.95524353753804   -8.84584955233575    0.00592410288037
N           0.96685774456233  -10.19134172050101    0.01151790971906
C          -0.28527263913495  -10.56748086862088    0.02967305515951
N          -1.14720472120983   -9.51511300868796    0.03755896911191
C          -2.52705919022666   -9.59421376363445    0.05609313550324
C          -3.34189123322036  -10.69479586450642    0.09976815844870
C          -4.66217772652498  -10.18723209281453    0.09745346364299
C          -4.54628076491066   -8.83287377605067    0.05354329331874
O          -3.25210953496380   -8.46659961329731    0.02761674206902
H          -2.30163342500917    0.10150731286596    0.08196079815601
H           1.59150535992517    1.48019366182530   -0.04173446491073
H          -2.72768119456375   -5.09018364229005    0.08410543998670
H          -2.84916317675015   -2.47716000393864    0.08905067918620
H           1.85692777346958   -8.26834515526713   -0.00740263231887
H          -0.60985243203471  -11.58779438270851    0.03683708703309
H          -3.04745505760723  -11.72262067220485    0.13029782705710
H          -5.56629986630178  -10.75908667097666    0.12509014557621
H          -5.27627907529371   -8.04917702106774    0.03657873449788
