32
         -59.046770903290          0.000986590846
C           0.84173859309780   -0.39465088649023   -0.21092475010081
C           0.61154630334326    0.95473644378112   -0.22683326113849
C          -0.78765105274835    1.07853468975285   -0.12050381202185
N          -1.36399848290054   -0.09819272329581   -0.04522800560637
N          -0.37257295352217   -0.99670241136374   -0.10046428218459
C          -0.64232666068919   -2.34171461472700   -0.04699323629522
S           0.61926498026591   -3.52044846029600   -0.12356489583265
C          -0.56084045982697   -4.81205262011769    0.00029761639636
C          -1.84534921231321   -4.29996095902960    0.09427444141630
C          -1.89197542083319   -2.90992956412982    0.06777720709073
N          -0.06208581920929   -6.05393273513788   -0.01281142562366
N          -0.89662888940227   -7.03726300454613    0.07013072000002
C          -0.33429631781525   -8.26401738197089    0.05268479815053
C           0.97957067351558   -8.71744365564936   -0.03883467830807
N           1.01241800361589  -10.06048174752315   -0.01300376284094
C          -0.23218621180184  -10.45199550035841    0.09100629051085
N          -1.10778042056143   -9.41626046472915    0.13624723816149
C          -2.48214220731589   -9.51223442253584    0.24207021386120
C          -3.40031439582322   -8.50516885940655    0.28333530230274
C          -4.72144599601888   -8.98799467781407    0.39470634434757
C          -4.79022332382584  -10.34171311637968    0.43615707101054
S          -3.23818787821337  -11.07715538232840    0.34052101624778
H           1.74469545808219   -0.96749600970665   -0.26711542546171
H           1.33163019587962    1.74239505671245   -0.30320380516247
H          -1.37869458303441    1.97190506753712   -0.09685757159612
H          -2.70616295407067   -4.93744153247249    0.17914243746960
H          -2.78419730110118   -2.31501238562361    0.12745481336903
H           1.86835662204648   -8.12576697792170   -0.12013688591111
H          -0.54555591076248  -11.47642050748686    0.13696928884863
H          -3.12172196905533   -7.47008684354519    0.23455140187115
H          -5.58395515946026   -8.34839983510932    0.44161608693501
H          -5.65670724954155  -10.96662397808826    0.51730351009453
