32
         -59.896788616257          0.000283235950
C           0.82603633530843   -0.38681928720756   -0.01628710458217
C           0.52850167530164    0.98962516155076   -0.02523367398402
C          -0.83255021162310    1.08001681251087   -0.00800646185835
O          -1.39409383627292   -0.13673259069355    0.01141217950768
C          -0.38626935526648   -1.04200314746989    0.00640980870038
C          -0.69231127998711   -2.43535371933567    0.02195621533823
S           0.56167027358200   -3.62399886962240    0.01067083760493
C          -0.62089175409850   -4.91630328283186    0.03509667497523
C          -1.91285617272646   -4.40219723758274    0.05178889340352
C          -1.94918142510440   -3.01562389888310    0.04427292684948
N          -0.12087571880913   -6.15455667262006    0.02946701814042
N          -0.94423840311354   -7.15216730263745    0.04620967602139
C          -0.36612846047360   -8.37528919275965    0.03290387945521
C           0.95161304339722   -8.82820345796465    0.00315483184059
N           0.97864425542821  -10.17034015920988   -0.00082650766828
C          -0.27270560320132  -10.56384896570171    0.02522331166041
N          -1.14239611312601   -9.52621716634455    0.04679649317962
C          -2.52355773980792   -9.58546748753095    0.07635151519541
C          -3.41215486263937  -10.63479063333643    0.08986919083041
N          -4.67585467254644  -10.14775005175857    0.12044080161730
C          -4.56941730287330   -8.84742405687887    0.12481231852049
N          -3.27772652537220   -8.44679676154655    0.09903699613943
H          -2.83433889988047   -7.53021008412898    0.09322766168455
H           1.79222846741975   -0.84782927752818   -0.02490588872536
H           1.22692223398180    1.80052809725717   -0.04248960661239
H          -1.49361032175294    1.92399127958624   -0.00749093240585
H          -2.78542030951199   -5.03073123412685    0.06782870103605
H          -2.85050257880280   -2.42925048161607    0.05393715266291
H           1.84513606044064   -8.23841208326058   -0.01476664091768
H          -0.58850792136334  -11.58724646906184    0.02927107973309
H          -3.22373195969336  -11.68829599793900    0.07983045770874
H          -5.39713091681284   -8.16827178132711    0.14660819494871
