27
         -50.014998783931          0.000478946389
N           1.05690307033987   -0.27140788457070   -0.05811371221696
C           2.40876032018862   -0.11078431298596    0.02631034831678
S           3.11575489980336    1.46993296239073    0.02925163844469
C           4.73292844958200    0.77297069845389    0.05669648546750
C           4.66473582805762   -0.61016150717461    0.06464593161777
C           3.36495048911548   -1.10641706240688    0.04803562607059
N           5.75220617038179    1.63404912519426    0.06523242128913
N           6.94418325022349    1.13314545767414    0.09629438900989
C           7.94820937452919    2.03616328621889    0.10909410401484
C           8.02013634875233    3.42323983786593    0.11005422334488
N           9.30713903751452    3.82543781448638    0.13597293166476
C          10.02918059536991    2.73765225387830    0.15052634499320
N           9.26974418067624    1.60671380331768    0.13596538044039
C           9.74208861504550    0.30872429740512    0.14409835870296
C          11.03057450215045   -0.15628541861414    0.17526030887876
C          10.92376997084659   -1.56700943643518    0.16772324379380
C           9.59318281418902   -1.84481394977727    0.13292051139984
O           8.87055407777080   -0.70991892869026    0.11839810004885
H           0.48495864514177    0.52948001964273    0.15053096668884
H           0.68371260585166   -1.16483260724429    0.21943300944420
H           5.55757592440552   -1.20856455954003    0.08236115833085
H           3.11517678205461   -2.15261212209764    0.04892227287154
H           7.20758774000836    4.12033791267557    0.09435147019889
H          11.09958922481557    2.72046841091650    0.17159327524836
H          11.93068824963665    0.42097497963874    0.20029687588814
H          11.73138063886952   -2.26906286146166    0.18581710876060
H           9.05170819468002   -2.76894020876034    0.11575722728694
