27
         -49.677096781285          0.000889082371
N           1.00971276053922   -0.08272130210418   -0.19647851558196
C           2.36148133951770    0.03838254234862   -0.10141092704169
S           3.11734841195562    1.59399613125460   -0.09137504411329
C           4.71567772012016    0.84777829635073   -0.05185766922746
C           4.60022620976782   -0.53436863553525   -0.04345030734720
C           3.28641750884473   -0.98804356579833   -0.07069766456761
N           5.74224083393466    1.69393576281631   -0.03905243061691
N           6.94430939892519    1.21464530399921   -0.01355544090096
C           7.93511971945415    2.14099514668303   -0.00201719491717
C           7.96884757587906    3.53103616278775   -0.00282710226020
N           9.24279090637551    3.96358533203313    0.01286069388791
C           9.99434537231808    2.89059717947956    0.02291251406290
N           9.26599225674592    1.74722178475117    0.01540100743747
C           9.73511496843515    0.44664410124054    0.02085050571900
C          10.99962120063636   -0.09222251152979    0.03742563185898
N          10.90782893838832   -1.44452135336622    0.03495505023286
C           9.63387665876476   -1.72627931677531    0.01738138766468
N           8.87005477131417   -0.61028649139100    0.00813082312888
H           7.86334829086921   -0.44778661736327   -0.00511254210950
H           0.45164045220093    0.73292606584946   -0.01115024555218
H           0.60418420411486   -0.97009029191659    0.05020140397069
H           5.45941840369368   -1.18073303622085   -0.01672894557317
H           3.00527097819217   -2.02597747068696   -0.07194682180849
H           7.13787490354487    4.20617022041497   -0.01313838464758
H          11.06525950122308    2.89605684737263    0.03551775298977
H          11.95035128787480    0.39917526371039    0.05072860450763
H           9.22905542637002   -2.71778554840440    0.01077386080458
