26
         -50.738381146757          0.000387548772
C           0.83646753575911   -0.40437415344291   -0.02319111390450
C           0.59672048085155    0.94219922924429   -0.02429222094969
C          -0.80904018438486    1.05421532596264    0.00658585969490
N          -1.37917274463221   -0.12655104983588    0.02493755425118
N          -0.37890654434690   -1.01783389020314    0.00686872756689
C          -0.63959886469730   -2.36317844572370    0.01847830243141
S           0.63218164837377   -3.53051279596298   -0.00366528508924
C          -0.54596411756082   -4.82981598062945    0.02615770052293
C          -1.84084534556574   -4.32825067670288    0.05186308010039
C          -1.89352050274770   -2.94079365176268    0.04758425215064
N          -0.05093709124429   -6.06967054665763    0.01979405416566
N          -0.89704482058888   -7.04519484565614    0.03908126760105
C          -0.35483672458083   -8.28095584053669    0.03204496629622
C           0.92309762291745   -8.81682375601853    0.01093799548042
N           0.86773170212943  -10.16810359957554    0.01480298528223
C          -0.38854795550641  -10.49355797408639    0.03737035799903
N          -1.20313908928972   -9.38893418866420    0.04917872122441
C          -2.52801607491254   -9.37293099801068    0.07144519943044
N          -3.67141218710982   -9.38860950864421    0.09326644763902
H           1.74539530928305   -0.97040365605610   -0.04083615707345
H           1.31272544774039    1.73690695377389   -0.04415238111388
H          -1.40660627231586    1.94351826714584    0.01566923721254
H          -2.69395723886202   -4.98208070034097    0.07253895285410
H          -2.78974227672400   -2.34884476319730    0.06427788562805
H           1.85441031762097   -8.28873210079587   -0.00636254445582
H          -0.77332202960573  -11.49386665362283    0.04605615505501
