23
         -39.533195245074          0.000746340349
N           1.02575156325252   -0.14766460793297   -0.21639786412175
C           2.38143444144451   -0.00772925017965   -0.12627044170025
S           3.11285704856268    1.56214727623671   -0.11094660933337
C           4.72093178723220    0.84134102032714   -0.08933969890650
C           4.63000489109622   -0.53956825520910   -0.09047636621508
C           3.32158776353813   -1.01655376932371   -0.11081941882807
N           5.74721917466688    1.69454770788750   -0.07803337676102
N           6.94047612633818    1.19547742071076   -0.05744429691046
C           7.94612339040206    2.10042386749889   -0.04567950812747
C           8.04290732955029    3.48915264103734   -0.03774776255436
N           9.33635922697290    3.85914504242580   -0.02291158932040
C          10.03002492507136    2.74394119291191   -0.02213336839410
N           9.24877614641338    1.64771492804289   -0.03462933388420
C           9.64852387222225    0.27109976408891   -0.03893821733447
H           0.46889767214257    0.66086477523356    0.00461489162478
H           0.64221686235709   -1.03317975496285    0.07148203100712
H           5.50927641745018   -1.15805517627160   -0.07689520051391
H           3.05725883851189   -2.05915994129169   -0.11653160634452
H           7.24685302061262    4.20547104973929   -0.04078817772897
H          11.10173549234138    2.69843444310849   -0.01250059841576
H          10.73552355208808    0.21179487847067   -0.02415666306353
H           9.26625215824832   -0.22547715553340   -0.93236939626296
H           9.24121829948440   -0.23777809701496    0.83628257208926
