18
         -32.922759815660          0.000631289232
H           0.83595474721793   -0.23097328808824   -0.02214629696867
C           1.90647421548579   -0.16894309456201   -0.02512980754855
S           2.66140631477910    1.36603703608073   -0.02857211359567
C           4.24003430297511    0.61537186183601   -0.03194368539430
C           4.13029605519823   -0.76418195440099   -0.03048766706574
C           2.80310624637472   -1.20112273112077   -0.02661574938473
N           5.29743810241002    1.44677448734886   -0.03507311584964
N           6.46679456075890    0.90644064559969   -0.03631758721995
C           7.51032003454607    1.76510467735809   -0.03903842375789
C           7.67284038276960    3.14869392703490   -0.04122594917568
N           8.98170511697384    3.45863362782807   -0.04300321696912
C           9.62829507650147    2.31752151704529   -0.04202550303401
N           8.79199474856461    1.26123779435706   -0.03967979428004
H           9.02296637300772    0.28140748138741   -0.03847815138730
H           4.99390863270824   -1.40396544101131   -0.03225832205074
H           2.51144916665458   -2.23648414636938   -0.02489972089704
H           6.91114937811724    3.90142469224360   -0.04155760172823
H          10.69653654495684    2.22779290743299   -0.04290729369271
