32
         -59.066221524369          0.000497985151
C          -1.17127877331551    0.10750158587073   -0.09551716829433
N          -0.43194633737929    1.22856790867446   -0.21628339036609
C           0.80699607651460    0.83380156021225   -0.34635868160269
N           0.91148841517516   -0.51228706208830   -0.31557177451404
H           1.74596978140132   -1.07104689755663   -0.39375993484819
C          -0.35775722286318   -1.01299781818376   -0.15348389792349
C          -0.65535024152347   -2.40265663323256   -0.07582759569334
S           0.59349229842408   -3.60423992316960   -0.18622396715905
C          -0.57715539464139   -4.89203648470897   -0.01061787222855
C          -1.85767923168027   -4.37323565246983    0.12453430823107
C          -1.89895872375461   -2.98634217598148    0.08790663792144
N          -0.08039059920532   -6.13266182668779   -0.03138751749343
N          -0.91198250950903   -7.11559179170362    0.09227699951089
C          -0.34965515658201   -8.34168056790287    0.06415847420980
C           0.95984828335609   -8.79556227609186   -0.07415556199290
N           0.99529590574821  -10.13862610390462   -0.03757313792934
C          -0.24392594012493  -10.52982535686169    0.11831615624403
N          -1.11830768747613   -9.49371098813251    0.18817023568999
C          -2.48734024194964   -9.58819092981538    0.34898374753577
C          -3.40350244218893   -8.58037341892337    0.41310764616697
C          -4.71945791052252   -9.06074895911556    0.58275524262035
C          -4.78648026900390  -10.41381489618386    0.64472898908572
S          -3.23923137962797  -11.15149649892060    0.49778773944930
H          -2.23399437029270    0.15705631641480    0.02510928366267
H           1.64657045414857    1.48899223467391   -0.46386585806533
H          -2.71653607598288   -5.00828706841200    0.24491778262374
H          -2.80013725504618   -2.40726546265927    0.17658176937242
H           1.84458020363820   -8.20425692895336   -0.19517873219051
H          -0.55486081179145  -11.55388677278605    0.18568109904084
H          -3.12583240639189   -7.54641141491784    0.33976342224785
H          -5.57935860996807   -8.41982092225811    0.65507130791985
H          -5.64904182758501  -11.03739477422454    0.76807424876857
