32
         -58.585652061938          0.000700991139
C           0.89036019665545   -0.45722626127031   -0.46984566043427
C           0.83194275365554    0.94532646819834   -0.51523119776549
C          -0.42533056769573    1.42594832835148   -0.31533961399509
S          -1.57112668470864    0.17316811801960   -0.06619260847629
C          -0.33130304864654   -1.04091152280675   -0.23391195852053
C          -0.63990682197308   -2.42534812574435   -0.12415507517195
S           0.59027805892391   -3.63520688526071   -0.29049075061804
C          -0.58008074999232   -4.91037338472109   -0.03123316855813
C          -1.84929237846733   -4.38155369333838    0.16944359178743
C          -1.87856484329830   -2.99624630352118    0.11675942826917
N          -0.09600724816532   -6.15582225004818   -0.06334807477823
N          -0.92226095685563   -7.13237269126875    0.12731140234941
C          -0.36341504874287   -8.36021320253725    0.08254851066515
C           0.93591030247389   -8.81569552983864   -0.12731319937893
N           0.97545590005938  -10.15819760209719   -0.07282372759907
C          -0.25157428077889  -10.54751614372011    0.16306646561985
N          -1.12167168701711   -9.51054877979958    0.27001011021203
C          -2.47799437397396   -9.60371608847618    0.51652448870160
C          -3.39096993638188   -8.59608505713455    0.61839212651950
C          -4.69261809117868   -9.07514105018955    0.87882149597259
C          -4.75214719804016  -10.42688045471996    0.97050184321203
S          -3.21501853289036  -11.16492044869920    0.74142432999823
H           1.78918477683216   -1.03198848712202   -0.60346035496394
H           1.68699121933622    1.57353716356572   -0.68890369940363
H          -0.75333921902813    2.44622157704981   -0.29857705213888
H          -2.70610330938396   -5.00620353621873    0.34610414640180
H          -2.76630504398689   -2.40211737175699    0.24802680446222
H           1.81068892189863   -8.22523715928136   -0.30949861157750
H          -0.55665118654181  -11.57060792081513    0.26412659902851
H          -3.12068585417163   -7.56337862013298    0.50846844147438
H          -5.54812764775102   -8.43431296392475    0.99252298678657
H          -5.60367742016478  -11.04936012074113    1.15916198191949
