32
         -59.071434501555          0.000194559548
C           0.86906887246216   -0.48153778176225   -0.16592843636885
C           0.79560725231209    0.92064582858038   -0.15678498144787
C          -0.47900552727985    1.37980706201962   -0.02581364468671
S          -1.62320460034726    0.10741975763032    0.08887464185589
C          -0.35908963641043   -1.08620363729868   -0.04124491321469
C          -0.65884352894121   -2.47592554700938   -0.00791949879156
S           0.59092635980796   -3.67095162462558   -0.12384958454683
C          -0.58418006582293   -4.96182090821111   -0.00075706794315
C          -1.87079869156557   -4.44798960081451    0.12235970493517
C          -1.90742110335994   -3.06251520676126    0.11884331518524
N          -0.08878197818818   -6.20207890977627   -0.02273651929003
N          -0.92096987004328   -7.19072514096612    0.04300792015219
C          -0.36395386132776   -8.42258593544615    0.04364600722479
C           0.94391149883254   -8.90269767140450    0.00076544676593
N           0.94450031853039  -10.24455591509431    0.03584991250956
C          -0.31357696435445  -10.61201135794635    0.09911685751704
N          -1.16222398905760   -9.55724110502591    0.10755229391669
C          -2.54354962135032   -9.58690921341247    0.16695869084137
C          -3.45276454339650  -10.61561200993986    0.24534931313151
N          -4.70549798029615  -10.10119611353696    0.27741498668391
C          -4.57275686320973   -8.80444132643798    0.22097624609020
N          -3.27420913665220   -8.43283109863468    0.15183529514761
H          -2.81054683232046   -7.52741036001358    0.10122347971254
H           1.78274954999788   -1.04048866237270   -0.25968034699793
H           1.65219284511521    1.56442500379586   -0.24318554165127
H          -0.81986385892240    2.39526381319676    0.01091140140128
H          -2.73854998482881   -5.07629505885591    0.21632626923314
H          -2.80806603934456   -2.47992660298741    0.20554974515523
H           1.84853007114733   -8.33219862779733   -0.05227841729903
H          -0.64891954943237  -11.62838049619405    0.14017090432465
H          -3.28608379166614  -11.67222077966296    0.28061548881223
H          -5.38578875008739   -8.10743077323472    0.22720103164202
