29
         -53.808760638295          0.000159455321
C           1.03652549821084   -0.22706455438683    0.68432620400696
O           2.22966831836027    0.00937629204620   -0.03342111996394
C           2.88254697545414   -1.06423527988941   -0.50667872962013
S           4.35095502736446   -0.76490378033547   -1.36714608282320
C           4.56724241154075   -2.49238321152730   -1.62218614774134
C           3.53049389690635   -3.20683575015947   -1.05272485698136
C           2.57821973809467   -2.40265383069837   -0.42240293974164
N           5.65967314794792   -2.86601165430856   -2.30156478630603
N           5.83066459876316   -4.13178372879219   -2.48526735086983
C           6.94133286787854   -4.46905276610081   -3.17541884694878
C           7.97481538664998   -3.75865741909055   -3.77483497560947
N           8.85053542089133   -4.60460010694362   -4.35146039385267
C           8.39531171946796   -5.80900400502817   -4.12928276615557
N           7.23421122469593   -5.80558802497177   -3.41895618275551
C           6.51461126030674   -6.91936120904404   -3.03005224028491
C           6.75351798363990   -8.24683802018551   -3.27101865498202
C           5.69755646044376   -8.94215990064946   -2.63642192265951
C           4.90867880278131   -7.99235666948272   -2.06656233145521
O           5.39978197030109   -6.76209369952134   -2.30177490057195
H           0.67399664786411    0.75401513240876    0.98394106468056
H           1.22496516781370   -0.83703870650473    1.57252648968319
H           0.28893181421071   -0.71959631874927    0.05584069042073
H           3.49102217081408   -4.27960951396686   -1.10743381684406
H           1.70650049634017   -2.79173016138541    0.07179081402415
H           8.10488670946609   -2.69630963274406   -3.80573698373005
H           8.87286236018259   -6.70773180888281   -4.46219982923791
H           7.56485668894985   -8.67301173039128   -3.82250868331368
H           5.55367577762819  -10.00240616477656   -2.61334877396249
H           4.00760945703122   -8.05697377593828   -1.49092194640434
