21
         -36.095744437200          0.000882889817
H           0.89559288086313   -0.07364663412082   -0.03722228798579
C           1.96602825126540   -0.01041741419975   -0.03612841502263
S           2.71898917431449    1.52588221751989   -0.04403316216136
C           4.29865267273420    0.77774223817298   -0.03779221750575
C           4.19150485499009   -0.60118985520848   -0.02988897250847
C           2.86422056787359   -1.04044124444166   -0.02896687388477
N           5.35250589513568    1.61485949443190   -0.04063315899826
N           6.52541844931850    1.08241921203458   -0.03835131685593
C           7.56336093940522    1.94715500418787   -0.04009834867918
C           7.71192455492800    3.33348207186771   -0.04115856725063
N           9.01555167329645    3.65369030422276   -0.04177752077626
C           9.66839106821212    2.51180888858447   -0.04116359126271
N           8.84941433412165    1.44667035516775   -0.03997881784267
C           9.19807660002006    0.05568339005579   -0.03923784995429
H           5.05462814286236   -1.24168374454507   -0.02499246458339
H           2.57441556630940   -2.07635195386154   -0.02329636041948
H           6.94246461832250    4.07838931408150   -0.04125528260107
H          10.73788316241454    2.42965800690659   -0.04153171384344
H          10.28187515743279   -0.04387633529854   -0.03541256030380
H           8.78809424282604   -0.43109949295919   -0.92541587142335
H           8.78165719335380   -0.43139382259875    0.84371535386323
