22
         -44.316126524786          0.000530852142
C           1.94554253839902   -1.45843931096440    0.77170690149186
O           2.40086743861597   -0.26511372623062    0.16640021819948
C           3.03966086171082   -0.37643941953162   -1.00615565165463
S           3.56896954255918    1.09069195262341   -1.74774174582362
C           4.23633012622372    0.18027116552281   -3.09784757035952
C           4.03083543311023   -1.17743507400184   -2.92569720061147
C           3.35599420588597   -1.49350091231692   -1.74702470769638
N           4.82223533198585    0.89077438714294   -4.06735844837656
N           5.31264529915473    0.23779910797679   -5.06535302122255
C           5.89147532318269    0.99294274892059   -6.02673207024884
C           6.12254926673691    2.34307172754071   -6.26458820564713
N           6.76828207370435    2.51452193027554   -7.43564865471575
C           6.95205027605746    1.32279093314154   -7.94561153996138
N           6.44065014902031    0.38437800178354   -7.13025365011709
F           6.46168493370847   -0.96030049706112   -7.35965095155376
H           1.45677700814096   -1.15188404710440    1.69391103799897
H           2.77975576692038   -2.12719463744871    1.00160522707225
H           1.22842875571813   -1.97689382222660    0.12906203910069
H           4.37015070665054   -1.89641826572484   -3.64920110116699
H           3.11260463843772   -2.49854613799678   -1.45414813348581
H           5.85062101079889    3.17213097705377   -5.64409674372431
H           7.43646931327774    1.10344291862611   -8.87473602749762
