19
         -37.444117642221          0.000535179498
H           0.98670245360445   -0.18115924069272    0.05750777669839
C           2.05769775958562   -0.12371407189821    0.05184198315195
S           2.81852916040526    1.40429910050282    0.05158093200967
C           4.39287544935143    0.64266555897866    0.04111924335463
C           4.27628865458925   -0.73916845621561    0.03824352185481
C           2.94795223973494   -1.16485663050567    0.04440644188055
N           5.45388589374725    1.46319333021297    0.03816856195138
N           6.61865656645380    0.91398328777767    0.02987368695259
C           7.66609312688543    1.76701476979102    0.02859537015775
C           7.84342079002274    3.14092954316194    0.03664713868293
N           9.16101248048118    3.44619159399173    0.03136986909082
C           9.80807483168304    2.32090330007825    0.02038121235507
N           8.95961034356720    1.24299044441450    0.01807410507883
C           9.29599904389728   -0.03897094647821    0.00772828144343
N           9.61620984152251   -1.13692935596593   -0.00083697952585
H           5.13773561797602   -1.38212308318528    0.03195776839149
H           2.64701823993866   -2.19726410594860    0.04349564381114
H           7.08715484683079    3.89898303333294    0.04596845334892
H          10.87474265972315    2.21532192864770    0.01371698931150
