32
         -59.411013719025          0.000647515098
C           0.86016501774697   -0.35191286286601   -0.22536412274949
C           0.56337036142272    1.02493289986649   -0.22747993504425
C          -0.79222206346748    1.11733799583727   -0.10926453643362
O          -1.35139074295832   -0.09896072770931   -0.03457139179098
C          -0.34675803778509   -1.00567299024087   -0.10489498875091
C          -0.65062122065197   -2.39885250661524   -0.04861478427216
S           0.60043223520230   -3.58888919158002   -0.13521260168268
C          -0.57613958288140   -4.87917004642147   -0.00128661771958
C          -1.86244253837054   -4.36495642703696    0.10255094008424
C          -1.90134806099072   -2.97830922071610    0.07576357872786
N          -0.08332899801332   -6.12258876368103   -0.01717976210406
N          -0.91975850278605   -7.10348333581400    0.08323663207411
C          -0.35906302677696   -8.33107892433523    0.06125571302368
C           0.95203031223889   -8.78679415744894   -0.05179655925804
N           0.98445954909749  -10.13028254707505   -0.01976094682077
C          -0.25825148673105  -10.51994364505636    0.10897808097722
N          -1.13212436470953   -9.48233978745059    0.16482350258034
C          -2.50418672095008   -9.57443034847344    0.29745117791660
C          -3.41877430520497   -8.56455609103900    0.34957687415085
C          -4.73915434938360   -9.04228656105937    0.48985593027869
C          -4.81117269557542  -10.39548073550549    0.54206784637624
S          -3.26311393432028  -11.13664477127188    0.42143568525375
H           1.82248117548624   -0.81487334149191   -0.30100039450186
H           1.25883555995805    1.83490430031626   -0.30579113296063
H          -1.45091561055773    1.96216700270327   -0.06832450893274
H          -2.72452297685153   -5.00058315971031    0.19357392655119
H          -2.79975311004499   -2.39119777118064    0.14354599047060
H           1.83950882934692   -8.19582647249512   -0.15214597677637
H          -0.57239905258118  -11.54368325837462    0.16602592807798
H          -3.13590373586327   -7.53120766930168    0.28835417355946
H          -5.59856475906229   -8.39933350258184    0.54897520712583
H          -5.67760316398176  -11.01752338219079    0.64433707256951
