27
         -49.162641442444          0.000533813358
C           0.88064828671318   -0.46969676006626   -0.05361381609695
C           0.78990492304569    0.93222693458532   -0.04844224045760
C          -0.49511727942262    1.37605243650579    0.00201792341342
S          -1.62894376474177    0.08812245936179    0.04486608569390
C          -0.34447764028404   -1.08965915560648   -0.00652358256298
C          -0.62789122617573   -2.48391029087802    0.00431322093890
S           0.64519841537305   -3.66039049596843   -0.06018272136325
C          -0.51481223120797   -4.96695519748775   -0.00424259713786
C          -1.81192879590933   -4.47549706568327    0.06069715148267
C          -1.87071463012831   -3.08941971368233    0.06562774217573
N          -0.00983124796156   -6.20755173889760   -0.01638925082511
N          -0.85137761551348   -7.18804299671434    0.00601138916274
C          -0.32723375175284   -8.42957324107953    0.00737225167727
C           0.93671167926883   -9.02172379825772    0.00256137907808
N           0.81700961675984  -10.35549422577619   -0.00459682718624
C          -0.47645571124963  -10.61544689629598    0.00897453800076
N          -1.21077391166923   -9.49261980429901    0.01362288373922
N          -2.58929740500349   -9.36370949735497    0.09401548299320
H           1.80492892907055   -1.01785735616633   -0.08948081424440
H           1.64292001023652    1.58589930348470   -0.08051971470925
H          -0.85106068402191    2.38687091765651    0.01707082751309
H          -2.66576557639683   -5.12708585520334    0.10656051740181
H          -2.78337039814319   -2.52096484685453    0.11310759247130
H           1.89011331647605   -8.53423430163518    0.00518975936946
H          -0.90212276243758  -11.59856793067610    0.00087773554074
H          -3.04260279803719   -9.75864983936747   -0.72773812552866
H          -2.78347774688638   -8.36364104364332    0.14911320946012
