25
         -46.216997610590          0.000772447354
C           0.83588318556964   -0.40130262465634   -0.03082524255386
C           0.60390033650861    0.94801824065997   -0.03211151578908
C          -0.79918871943993    1.06759932381890   -0.00228564824657
N          -1.37637253493635   -0.11154938511298    0.01861035315704
N          -0.38132733053583   -1.00704631363435   -0.00001537072579
C          -0.64693980955885   -2.35405823899607    0.01233122955848
S           0.62623219872376   -3.52418901179942   -0.00913435045159
C          -0.55018670157850   -4.82378695341537    0.02178849629084
C          -1.84175545048207   -4.32256926305143    0.04677151154029
C          -1.89673644468054   -2.93193222508745    0.04169695920975
N          -0.04934885990700   -6.06580240838213    0.01691666363820
N          -0.89047655162826   -7.04521943084612    0.03804574879467
C          -0.34391868854089   -8.28009722286615    0.03272373252989
C           0.94726102584899   -8.80456903630583    0.01067675126653
N           0.89853150188634  -10.14840102203142    0.01682253613694
C          -0.37305589007848  -10.46862387067819    0.04292658183629
N          -1.16966164437307   -9.38161268364443    0.05322082894705
H          -2.17549761946485   -9.34591398475944    0.07211605982521
H           1.74181352005874   -0.97213174240345   -0.04841210770963
H           1.32554482185098    1.73778881746775   -0.05247126621613
H          -1.39278503973376    1.95972496881042    0.00666439900348
H          -2.69656728330982   -4.97361333131037    0.06772880954328
H          -2.79489815523777   -2.34278686310068    0.05788452646954
H           1.87500404028205   -8.27018114684834   -0.00920132792940
H          -0.74352390724318  -11.47450459182708    0.05425164187453
