25
         -46.577014662098          0.001000101144
H           0.88731298849752   -0.29563857938715   -0.05093984290556
C           1.95669636346465   -0.21700854239211   -0.04994764330265
S           2.68624087458060    1.33000247625385   -0.05448108559961
C           4.27605552638856    0.60368242584100   -0.05024410695058
C           4.18947916093335   -0.77723465098498   -0.04606541537518
C           2.86950078388244   -1.23523069249287   -0.04610436882925
N           5.32564648246511    1.44547873133212   -0.05189630308999
N           6.49531911631923    0.90625038567190   -0.04953535795762
C           7.53475024808725    1.76604175929284   -0.05135608424644
C           7.65980824082982    3.15144619885997   -0.05353582879178
N           8.95880286777100    3.50280334477426   -0.05388146883612
C           9.63947305420990    2.38609239841058   -0.05416516231999
N           8.83945866379429    1.28657172009741   -0.05186955640992
C           9.26074686931611   -0.03047282904652   -0.05060518745067
C          10.52986188584508   -0.54710953911433   -0.04784954465962
C          10.36660601159331   -1.95209479990503   -0.04821187861628
C           9.02527630155912   -2.17641807551597   -0.05064671654827
O           8.34852847040684   -1.01406309180555   -0.05233607748038
H           5.06824335734290   -1.39567027722342   -0.04331060937202
H           2.59254562598508   -2.27458886404713   -0.04333802581846
H           6.87166795865388    3.87631915860185   -0.05361145382176
H          10.70886508664292    2.32959480452991   -0.05521769598469
H          11.45380293383750   -0.00854486656054   -0.04577580891859
H          11.14644307657308   -2.68501856308600   -0.04657360291632
H           8.44881805102051   -3.07934003210421   -0.05171117379816
