32
         -59.551742132375          0.000380154932
C          -1.21575190849191    0.07032909803575   -0.00161508343844
N          -0.47387330388779    1.19510616743890   -0.02295410954113
C           0.77409557175736    0.80727359634976   -0.02913254459933
N           0.88241251415309   -0.53865600820122   -0.01303761453656
H           1.72474230411389   -1.09110122272166   -0.01372785993182
C          -0.39430340815659   -1.04652177392967    0.00504303331513
C          -0.69368619701445   -2.43726946849282    0.02269700840148
S           0.56055528910398   -3.63648682826408    0.01791800707234
C          -0.62027742797048   -4.92754092542888    0.03994047314194
C          -1.90988041649877   -4.40985582562304    0.05186006803313
C          -1.94772201360483   -3.02296479126917    0.04200461919793
N          -0.11652564390838   -6.16330248479488    0.03523782431243
N          -0.93878233510784   -7.16255378613768    0.04968687424414
C          -0.36106911534166   -8.38516952464085    0.03441646714145
C           0.95656528203348   -8.83877537772335    0.00451268110126
N           0.98268215406556  -10.18069148387322   -0.00341567085275
C          -0.26897731332260  -10.57349149532165    0.01998640688328
N          -1.13812883861893   -9.53566492635770    0.04403610764707
C          -2.51937895327301   -9.59453037423279    0.07200358312033
C          -3.40811548838747  -10.64386344870666    0.07933421908320
N          -4.67167401350070  -10.15689242307742    0.11092347932825
C          -4.56538363762800   -8.85669072759080    0.12273439000205
N          -3.27364708396626   -8.45591208360108    0.10011512970199
H          -2.83081690831343   -7.53928408042848    0.09877999467431
H          -2.28545482838418    0.11429706657588    0.00714202003221
H           1.61772373615156    1.46749049583910   -0.04534701189812
H          -2.78217633821603   -5.03872513992452    0.06578102011703
H          -2.85410765338544   -2.44547904886228    0.04795192675952
H           1.85094197383843   -8.25015081484531   -0.01062770791689
H          -0.58528107158828  -11.59671374776170    0.02040661130217
H          -3.21990617369947  -11.69730931235681    0.06377143366269
H          -5.39297875295218   -8.17751930007179    0.14747422443982
