20
         -40.522918208092          0.000607245769
N           0.96870022700949   -0.19557631337267   -0.21939784323205
C           2.31773456775084   -0.05013698392407   -0.13207804337602
S           3.04397567050002    1.52042898074826   -0.11455187937396
C           4.65329768463002    0.80238696239650   -0.09059521458325
C           4.56628596925228   -0.58207679395601   -0.09234098091633
C           3.26251643972577   -1.06006439121170   -0.11546585444256
N           5.68060177574698    1.64895548098112   -0.08062324579906
N           6.87017522339574    1.14250271063639   -0.06108815522693
C           7.88037531263189    2.04185913079010   -0.05626165183060
C           8.01583406094756    3.42479252833704   -0.06063702569757
N           9.31911981390758    3.77533169275934   -0.05188466860065
C          10.00963550057016    2.66388870806634   -0.04242984748929
N           9.18249210911209    1.60285433492067   -0.04400756815645
F           9.57496134846979    0.29473272151494   -0.03672788133883
H           0.39457318078237    0.60697463265168   -0.02494876836330
H           0.58013252264497   -1.09504365032011    0.01185358818983
H           5.44957516262077   -1.19465864274400   -0.07702039744906
H           2.99886587732631   -2.10264364468808   -0.12337182935532
H           7.23570690752488    4.15804753001673   -0.06909596368966
H          11.07711064545052    2.58439500639753   -0.03465676926895
