25
         -43.327239766842          0.000506761458
C           1.56286937059899   -0.66443784664986    1.07073913298756
O           2.39487556246139   -0.01190618765698    0.13488607131801
C           3.00342940558434   -0.78302806614948   -0.78215622801903
S           4.02173636451347    0.02165371451974   -1.92468148594549
C           4.39799237099166   -1.51611871694763   -2.69191530112033
C           3.74474201465517   -2.55354227536114   -2.05595468812818
C           2.95681995266434   -2.14200069305023   -0.97713477588257
N           5.23124275296842   -1.47402802977288   -3.74179699451897
N           5.50932198991655   -2.59620049513241   -4.31618993697217
C           6.35438357937074   -2.52317225276399   -5.36841411974601
C           7.05056406669082   -1.51278852805660   -6.02865911338795
N           7.76694143913915   -2.03460778276097   -7.03900016659002
C           7.53160683946542   -3.32751156722188   -7.01857278315766
N           6.68804599888126   -3.68483292544101   -6.03382071121912
C           6.20596167067288   -4.99491414307309   -5.70745843294264
H           1.17297267861479    0.12007274056685    1.71580063915810
H           2.12980632609715   -1.38448412931729    1.66816288058061
H           0.73475129346866   -1.17699429359823    0.57251075788074
H           3.85013045369886   -3.57294994098838   -2.38006894371748
H           2.38124040102507   -2.81895605168445   -0.37219828409532
H           7.05479575076722   -0.46440344120142   -5.81045324571797
H           7.95984092710009   -4.03032124597588   -7.70654631908497
H           6.62741937643599   -5.71771050177474   -6.40386111860451
H           5.11681691994562   -5.01694669800564   -5.77019348864309
H           6.49592249427195   -5.25548064250249   -4.68823334443149
