27
         -49.190715481766          0.000851350546
N           1.00182934908069   -0.02435557963312   -0.14885523416216
C           2.35591048655831    0.08894072267463   -0.04987823135135
S           3.12024488018049    1.64215443343292   -0.04338213346899
C           4.71358179439982    0.88856190287542   -0.00238594853048
C           4.59197810962588   -0.49169150188734    0.00977410173840
C           3.27557143210515   -0.94040895260020   -0.01640889331111
N           5.75255347622857    1.72300008908169    0.00572981468425
N           6.94071679041005    1.21011444619501    0.03270830485616
C           7.94807864806150    2.11212764041178    0.03895199255446
C           7.99888294739090    3.50094814696985    0.03662665454156
N           9.27786651472918    3.92413120064264    0.04954347369962
C          10.01548559399311    2.84537075346890    0.05934459111335
N           9.27702719962536    1.70339099401541    0.05443190910844
C           9.76685828721663    0.41256258372557    0.06009055212036
C           9.06790494003466   -0.75773457309681    0.03993212442323
C           9.91161631056993   -1.88914219334098    0.05362738372361
C          11.22874638176306   -1.56872625029222    0.08337512232823
S          11.48564420225632    0.13351423456097    0.09616332521166
H           0.45209705136216    0.79435046271500    0.05019031758216
H           0.59414975504255   -0.90783793663785    0.11131609408122
H           5.45348596220984   -1.13397085466272    0.03826332084489
H           2.98951003899536   -1.97723160354606   -0.01546677806833
H           7.17388726695425    4.18378797517910    0.02740381164080
H          11.08775778506727    2.83866846575696    0.06986287262617
H           7.99525304192933   -0.78172434093931    0.01631810955631
H           9.54679472446380   -2.90038269327250    0.04133074688872
H          12.07813702974581   -2.22177757179676    0.09858259556881
