28
         -48.928770890941          0.000195582219
C           0.91083306677022   -0.47313799156305   -0.01810390812128
C           0.84285359868338    0.92995540785674   -0.03430783533605
C          -0.43560885088859    1.39475592581685   -0.02374950139495
S          -1.59094649790506    0.12528019658339    0.00696829614005
C          -0.32491868040880   -1.07304198684264    0.00504644059142
C          -0.62829141934210   -2.46302484225187    0.02296977206585
S           0.63283950456916   -3.65440756683686    0.00753647216613
C          -0.54336644217817   -4.94757423146389    0.03755748621247
C          -1.83610024409510   -4.44156459912915    0.05891655982082
C          -1.87910335253998   -3.05457743111327    0.05023052384989
N          -0.04991753905206   -6.19234854257261    0.02613006253084
N          -0.89801132579690   -7.16727134290668    0.05558764402484
C          -0.35912982692114   -8.40448405598843    0.03030372701991
C           0.93146847727614   -8.93077246993357   -0.02785640392454
N           0.87878282805802  -10.27224350519654   -0.03162000079214
C          -0.39777238075745  -10.58397258420565    0.02221767973393
N          -1.19456361299935   -9.50191142618533    0.06164552056425
C          -2.62630616773573   -9.45386859087971    0.12234783599529
H           1.82650566560773   -1.03664124437282   -0.02297148511615
H           1.70704590403469    1.56933300430904   -0.05330930334550
H          -0.77503653662536    2.41131338210846   -0.03229122512189
H          -2.69557198907784   -5.08698076338313    0.07828650379593
H          -2.78607786176687   -2.47504357854385    0.06292028322728
H           1.85888367648518   -8.39655435390041   -0.06580282473023
H          -0.77276094621424  -11.58885169741912    0.03390152823138
H          -3.01951917801383  -10.46838875550620    0.15293978337758
H          -3.01946506412949   -8.93469423366989   -0.75322306289886
H          -2.94248480503665   -8.91054212281000    1.01406943143392
