20
         -36.329586416764          0.000688892761
H           0.92948772791628   -0.34206794466494   -0.17150109588682
C           1.99659158623538   -0.24932772671279   -0.12446966195441
S           2.71212373083524    1.30303453475483   -0.20891114193008
C           4.30677572886356    0.60117649913367   -0.07871246333972
C           4.23221852491466   -0.77642481355710    0.02669571541027
C           2.91775622963491   -1.25086347252802    0.00082946834261
N           5.34198415902549    1.46159801036024   -0.08153321846354
N           6.52321958191619    0.94993015021519   -0.03193336550254
C           7.56084098508955    1.81026559735501   -0.02399496284785
C           7.76875153525037    3.19017527774356   -0.05711431380477
N           9.08068896166106    3.45536990643255   -0.04884022705115
C           9.69839789698609    2.28985216032272    0.00128844342269
N           8.83146152003557    1.26707645063578    0.01459954890513
N           9.09600562597737   -0.08860459583452    0.13105662007470
H           5.10718164034664   -1.39311196812320    0.12411885471906
H           2.65436327225815   -2.29142495327801    0.07073859842934
H           7.03059167050954    3.96542091772131   -0.08588605803692
H          10.76199272357655    2.16215116861090    0.01404816213376
H           9.65702070010118   -0.42192419570626   -0.65046237461462
H           8.19195619886637   -0.56119100288097    0.14014347199489
