28
         -49.754122740744          0.000219506513
C           0.83928558342173   -0.36951851712041   -0.01801018129483
C           0.53119593352938    1.00530589795892   -0.02258474069608
C          -0.82969471922837    1.08553265053272    0.00037920064183
O          -1.38214628752535   -0.13666157040204    0.01863927350514
C          -0.36707482618972   -1.03388873976806    0.00745970530139
C          -0.66041319134821   -2.43087381342778    0.02128202465498
S           0.60977376474715   -3.60520409438039    0.00287756637522
C          -0.55641766729984   -4.90964736084395    0.03073346482566
C          -1.85291988872091   -4.41454700335616    0.05346259487135
C          -1.90814236381468   -3.02700324905411    0.04797025056942
N          -0.05281927738858   -6.15094562867294    0.02398875037531
N          -0.89195757772735   -7.13334150001714    0.04330455961060
C          -0.33999847433106   -8.36549150049997    0.03284951944565
C           0.95691073152988   -8.87815314704359    0.00594427471493
N           0.91856954989405  -10.22022410415474    0.00735304058282
C          -0.35544262873272  -10.54530824587308    0.03397727105678
N          -1.16429790603966   -9.47156134983609    0.05066473242970
C          -2.59744959018469   -9.43857698669466    0.07965660087507
H           1.80861711241322   -0.82368386011594   -0.03144334490174
H           1.22361536612965    1.82149101303910   -0.04040937049635
H          -1.49752474146254    1.92411716666716    0.00575991960099
H          -2.70688242267412   -5.06734047522664    0.07262536034147
H          -2.81694670844415   -2.45206100110438    0.06253746019506
H           1.87910284224424   -8.33402994438314   -0.01344237031256
H          -0.71994370503688  -11.55407984637822    0.04190189735713
H          -2.98064126949276  -10.45724043334999    0.09813684146956
H          -2.97619448995548   -8.92039088884153   -0.80276765946881
H          -2.93927314831225   -8.90177346765315    0.96589335837040
