25
         -45.752401661254          0.000493971097
H           0.91544928020325   -0.14341966577560    0.04035620828429
C           1.98682106778432   -0.10000497077434    0.03983368441805
S           2.76934926947298    1.42064101081563    0.03378532229278
C           4.33471893244382    0.64262727538616    0.03618326998904
C           4.19930106679276   -0.73506936552134    0.04158219247079
C           2.86480082930315   -1.14811293645104    0.04365300173631
N           5.40335716813822    1.45902262283594    0.03380355216507
N           6.56608104115219    0.90268808688417    0.03386267247535
C           7.61687124153820    1.74964231763765    0.03363614766550
C           7.74050621775528    3.13649371241535    0.03602261224454
N           9.03721274558498    3.48977446198661    0.03668240203130
C           9.71790290774282    2.37158244285576    0.03470415723645
N           8.92333212893510    1.27186211152978    0.03281716315101
C           9.34560273999671   -0.04399100543455    0.03001298820348
C           8.58543831943013   -1.17594494789900    0.02350288171521
C           9.36863911150525   -2.34950690179991    0.02236243258791
C          10.70121789265412   -2.09766139144306    0.02787555752568
S          11.04731089893548   -0.41256451267712    0.03473737130532
H           5.04560501893820   -1.39734926736355    0.04426497961260
H           2.55561533059780   -2.17831284437508    0.04780795200650
H           6.95150713136344    3.86075673878322    0.03741744826049
H          10.78862333377232    2.31143180763572    0.03461352110255
H           7.51289185527562   -1.14636124702858    0.01966780993416
H           8.95124194742461   -3.34004045974941    0.01756502384662
H          11.51486252325927   -2.79482307247343    0.02828964773899
