26
         -50.277724718504          0.000833327619
C           0.91200615995940   -0.47053666730175   -0.00783773259328
C           0.83840551371728    0.93081237231323   -0.03182943160923
C          -0.44369829145649    1.38981257023327   -0.03404316242379
S          -1.59382823485857    0.11873293343091   -0.00785132120780
C          -0.32343383212803   -1.07529444201743    0.00764877002987
C          -0.62216762434038   -2.46480681645716    0.02781210402187
S           0.63744217723582   -3.65342581678978    0.02278378156479
C          -0.54092295371723   -4.94603946374847    0.04642938617773
C          -1.83731077015731   -4.43932459380893    0.05962403086832
C          -1.87775884764925   -3.05586016803197    0.04812848071970
N          -0.05850308231175   -6.19028123611513    0.03858776159668
N          -0.91757088126205   -7.15664081929534    0.05807126558148
C          -0.38897160021364   -8.39775088820870    0.03257642410962
C           0.88257358167529   -8.94544176513851   -0.02958887876126
N           0.81441437625402  -10.29649598277558   -0.04072948185584
C          -0.44342165390612  -10.61057259083015    0.01521646541434
N          -1.24701751975302   -9.49814821545128    0.06106094829194
C          -2.56994484555642   -9.46993550287994    0.12111493878242
N          -3.71278919616320   -9.47549206935041    0.17310680451579
H           1.83004330060514   -1.03035686509633   -0.00249243533625
H           1.69925196418496    1.57465151294550   -0.04721445647118
H          -0.78545680878200    2.40562492647019   -0.05098364381595
H          -2.69363587428080   -5.08912837500356    0.07469232068789
H          -2.78297206917021   -2.47400445842101    0.05427633539035
H           1.81761865730993   -8.42494175634154   -0.06856290394867
H          -0.83816164523574  -11.60712582232980    0.02416363026990
