28
         -49.409372757654          0.000245892177
C          -1.20535058160068    0.07891449307159    0.01086300721050
N          -0.46710862119019    1.20777992717987   -0.01135246702443
C           0.78154190532496    0.82395779641658   -0.03020229173576
N           0.89377016165660   -0.52213686514233   -0.02116510007296
H           1.73627279243924   -1.07408392226580   -0.03200003796499
C          -0.38086343339255   -1.03420789856391    0.00530327417745
C          -0.67050653783652   -2.42825731207568    0.02016888913224
S           0.59904334288128   -3.61417825245870   -0.00027086818042
C          -0.56654194999903   -4.91656975887698    0.03027624272565
C          -1.86016597376148   -4.41666714050969    0.05512338652368
C          -1.91561702062852   -3.02855734686076    0.04934712826211
N          -0.05823104898247   -6.15465723691864    0.02245292821060
N          -0.89341488671193   -7.14096037479837    0.04318867623803
C          -0.33658106910882   -8.37035544037843    0.03092830731087
C           0.96272565052596   -8.87706700434750    0.00105289451434
N           0.93051628846683  -10.21909869348430    0.00133028647467
C          -0.34198302713317  -10.55000243727174    0.02974549569802
N          -1.15581410692208   -9.48014342308400    0.04913162573389
C          -2.58910935948023   -9.45451140686005    0.08081372916505
H          -2.27510292496654    0.11918391026240    0.02899669132134
H           1.62351649439316    1.48625348187312   -0.05019262120966
H          -2.71453055928479   -5.06884561384375    0.07600631216077
H          -2.82860902629490   -2.46132877592468    0.06552559665731
H           1.88284512216004   -8.32935778846553   -0.01930176291029
H          -0.70186699926844  -11.56039022062166    0.03719323883424
H          -2.96675758835546  -10.47516118342312    0.10134480083465
H          -2.97245489906531   -8.93962962503696   -0.80157672811836
H          -2.93209214386507   -8.91850188759088    0.96708936603143
