29
         -53.470320853676          0.000545812619
C           3.04548427154254   -1.46757955589132   -0.31470481659110
O           3.24739613591859   -0.07079024738562   -0.38928570154028
C           3.50775962900061    0.57195230723694    0.75749978294471
S           3.74451240202633    2.28013142494387    0.66033141438076
C           4.01174449074223    2.35702028018314    2.39840264798837
C           3.90801773062927    1.09846879433632    2.96481333993119
C           3.62209768379803    0.09147655584325    2.04162693752179
N           4.24230661174198    3.57386948587128    2.90302666359503
N           4.48909813985058    3.66891265236249    4.16741150724773
C           4.68228697485838    4.92399691257373    4.63759892628030
C           4.65771990887211    6.19580527675333    4.07189418399333
N           4.91102691768165    7.12382963015291    5.00999446553441
C           5.09070889562044    6.47203640632033    6.13360493505751
N           4.96546366416927    5.13208427987111    5.98114460783673
C           5.09200102403322    4.15632623358905    6.95305820450702
C           5.33037585619018    4.20925127761032    8.30612366238306
N           5.36262723860303    2.94874853430966    8.80233661720676
C           5.15163168317331    2.15014729993294    7.79239284780893
N           4.98066295038039    2.83210555281924    6.63708215453609
H           4.78655157709821    2.54779556969296    5.67766048719748
H           2.85740540897378   -1.79274168510053   -1.33556959283477
H           2.18271007352182   -1.70728211154966    0.31316380236003
H           3.93276629016792   -1.97372578486658    0.07566488625655
H           4.02693268654890    0.92318642098354    4.01903485822096
H           3.50497913548440   -0.94207120058796    2.31189525443086
H           4.46981552054375    6.45422069778252    3.04994249515930
H           5.31277628099525    6.93140676741000    7.07530062816249
H           5.47614267620547    5.05850358100392    8.94087623969240
H           5.11769814162907    1.08160464379903    7.85615856073227
