32
         -59.532235758444          0.000706463465
C           0.82775495429814   -0.43455655684667   -0.03204595610572
C           0.60076538228307    0.91498706219559   -0.03363514587756
C          -0.80276630848586    1.04054440775294   -0.00205942752015
N          -1.38429863045480   -0.13545615753542    0.01694826546127
N          -0.39280781926957   -1.03581883079054   -0.00112471032622
C          -0.67022516476941   -2.37879070471399    0.01147458446258
S           0.58530321146034   -3.56432733299730   -0.01096349005187
C          -0.60860617485146   -4.85087403986572    0.02066284099278
C          -1.89451701253033   -4.32958934363387    0.04712180937991
C          -1.92902996408649   -2.93949312545606    0.04204487634444
N          -0.10770194513242   -6.08857832010996    0.01607965360512
N          -0.92733078882697   -7.08846220117621    0.03280514502241
C          -0.34556293497069   -8.30937952638556    0.02917606117663
C           0.97474177593601   -8.75708350594633    0.01447396797257
N           1.00745400750765  -10.09838757071920    0.01828225039430
C          -0.24276558663666  -10.49723007228413    0.03543021853116
N          -1.11701185711705   -9.46375723888820    0.04280527788639
C          -2.49807800003963   -9.53050797361271    0.05966604191635
C          -3.37977111516914  -10.58574912096594    0.07289113893379
N          -4.64671227370504  -10.10730602016577    0.08694367326753
C          -4.54932062685130   -8.80619629938060    0.08277029115369
N          -3.26018868425136   -8.39700438353941    0.06615596493583
H          -2.82483392651331   -7.47721871438072    0.05827699272856
H           1.73205268734836   -1.00785632209145   -0.04984466174263
H           1.32510349640074    1.70221963774221   -0.05419787628304
H          -1.39274585739446    1.93496014752957    0.00702082596747
H          -2.76948024327897   -4.95388911049251    0.06984325128100
H          -2.81916337435683   -2.33838281693730    0.05931616483473
H           1.86600275122079   -8.16349806291358    0.00160719524736
H          -0.55357275990103  -11.52203228932734    0.04265304197495
H          -3.18484842207714  -11.63794237768997    0.07301843998160
H          -5.38151879578520   -8.13273323637417    0.09121329445498
