18
         -37.083551027658          0.000744138414
H           0.84259238351044   -0.11248150048797    0.06221513096476
C           1.91273759449199   -0.03990238814819    0.05836378017332
S           2.65438836407194    1.49763466857511    0.05230784972111
C           4.23839303156837    0.75677319711505    0.04862315536304
C           4.13789106104187   -0.62698104057205    0.05209990448120
C           2.81583956507376   -1.07049678544513    0.05760708636502
N           5.28659026418166    1.59235641532760    0.04305320202824
N           6.45763127789910    1.06257240424033    0.04075327026566
C           7.50326532647818    1.91351957821358    0.03497568249491
N           7.58834667117884    3.23300304171893    0.03064943267401
C           8.89410979409542    3.54434523042395    0.02568988594934
C           9.66887439282844    2.40755884540336    0.02680558740139
N           8.77209660507806    1.39718162696936    0.03265195931276
F           9.11583439285405    0.07709012155661    0.03567336264820
H           5.00784211458712   -1.25823748819322    0.05054133614235
H           2.52795261247898   -2.10675367638900    0.06093737030794
H           9.21379901700874    4.56724522279687    0.02155343266615
H          10.72527553157306    2.24067252689481    0.02408857104060
