32
         -59.071552116030          0.000406680850
C           0.86040192658583   -0.48259574687082   -0.15156654796951
C           0.77496007549251    0.91833101117870   -0.18712291832800
C          -0.50858950525579    1.36868387609240   -0.13450136597487
S          -1.64645696503329    0.08904075556312   -0.03932997131739
C          -0.36748144690331   -1.09583821774924   -0.07136425103534
C          -0.65594201494677   -2.48727593644947   -0.02141896651743
S           0.60540549140272   -3.67383029763637   -0.06264588115023
C          -0.56498776921222   -4.97260257403491    0.02642499481084
C          -1.86080273890406   -4.46433288161839    0.08513542266089
C          -1.90681538066532   -3.08078460591251    0.05768307433230
N          -0.05926586621979   -6.20528348838983    0.01111392480812
N          -0.88105419100046   -7.20189195215495    0.08461338373250
C          -0.33408826211983   -8.43335254347753    0.04691937326498
N           0.93142642521499   -8.80362714465921   -0.06278544092346
C           0.93304154744878  -10.14158236918527   -0.05818508044144
C          -0.35078261318572  -10.63003696271326    0.05619108988936
N          -1.16520589416283   -9.54446748187453    0.12379388177261
C          -2.54026804993931   -9.54452138639150    0.24353128595521
C          -3.47058029736858  -10.55612631907032    0.32294872004854
N          -4.70810425445739  -10.01730377997289    0.42989049094766
C          -4.54722360486836   -8.72198557606255    0.41893219387835
N          -3.24492014109696   -8.37608012441574    0.30652271254911
H          -2.75749201100205   -7.48211590088961    0.26386699884653
H           1.78170908272898   -1.03583786824253   -0.18315893471904
H           1.62935842914669    1.56778869185447   -0.24967251968627
H          -0.85932246354671    2.38141084232667   -0.14604632637640
H          -2.72846238060473   -5.09736323231833    0.14174029972310
H          -2.81403144259223   -2.50285007496983    0.09261967562181
H           1.84885585143562  -10.69296185160432   -0.13680779738307
H          -0.72878354720011  -11.63027790741953    0.09258392832996
H          -3.32860256983738  -11.61701919897474    0.30871391906591
H          -5.34291541933232   -8.00856975395781    0.48912063158502
