32
         -59.532549937199          0.000492504185
C           0.62123080780776   -0.35222226230943   -0.92732782403546
C           0.32293629325409    0.98140039679840   -1.00069550638397
C          -1.08221052375052    1.03808978734921   -0.90419168767177
N          -1.59878671409193   -0.16194866842112   -0.78301922859834
N          -0.56242517115748   -1.01077585564570   -0.79712521896703
C          -0.76532663784042   -2.36310832301081   -0.69280543688580
S           0.54742001047438   -3.48604994278082   -0.73757820685075
C          -0.57495353918039   -4.82609905621431   -0.58577933642497
C          -1.88318724167116   -4.36587073510566   -0.49262353648432
C          -1.98928335823048   -2.98162963588078   -0.54721148081229
N          -0.02436655878568   -6.03722446999766   -0.51009778337343
N          -0.80299365638819   -7.06586656602543   -0.56901163828218
C          -0.23010969932529   -8.27103858627354   -0.38338012620617
N           1.00840177368112   -8.58505665567282   -0.03877652514017
C           1.04760910125615   -9.91950106257250    0.04499612410304
C          -0.18490498561197  -10.46254222605960   -0.24978974716878
N          -1.00620581877761   -9.41514749741134   -0.52156232224523
C          -2.33901561124914   -9.47704947042792   -0.87531493886164
C          -3.21305939148941  -10.52982863706116   -1.02788383641875
N          -4.42693376610814  -10.05370901590120   -1.39174922803438
C          -4.30729837179997   -8.75592855004881   -1.46082515023872
N          -3.05429721008917   -8.34753572656313   -1.15731028453004
H          -2.61715566494021   -7.42991981792624   -1.10323189135717
H           1.55248025875124   -0.88036343710103   -0.95568693649524
H           1.00190753025866    1.80153579019861   -1.10661888296667
H          -1.71746374267468    1.90079896875655   -0.91903166758551
H          -2.71698461670772   -5.03179777039730   -0.36163510534522
H          -2.90496393946639   -2.42329250965790   -0.48989004920669
H           1.95111528883135  -10.42970956976032    0.31369558204790
H          -0.52283557365428  -11.47704403124450   -0.28423428399532
H          -3.04654608319144  -11.57941757475818   -0.89943327595854
H          -5.09787318813480   -8.08425728886972   -1.72681056962005
