27
         -49.623860548525          0.000684453344
C           0.81048434726781   -0.41565282321775    0.00030775452861
C           0.54862764804797    0.92832885827548   -0.00560837616219
C          -0.85692872436407    1.01682652680295    0.01705104299985
N          -1.40761778708902   -0.17486601418914    0.03524003496253
N          -0.39270684707477   -1.04807936131490    0.02507772441723
C          -0.63125115407116   -2.40063860298585    0.03487277389859
S           0.66060364733961   -3.54886955590060    0.03559071902123
C          -0.49383724135214   -4.86830381937666    0.04561655938130
C          -1.79456746047374   -4.38676274010581    0.04874081716663
C          -1.87276372633456   -2.99784325682660    0.04180451301812
N           0.03150000015439   -6.09800403891537    0.02730050168351
N          -0.78825396640122   -7.09487393168430    0.05522007280624
C          -0.25991656650126   -8.33015108886418    0.02431120667077
N           0.98516047280675   -8.78957676187768   -0.02895323059554
C           0.88824213442294  -10.12001838759028   -0.01589799096217
C          -0.43703334363617  -10.51895198601263    0.03650173817887
N          -1.15479955111309   -9.37835044251830    0.06444159803161
N          -2.53160056332905   -9.24329231320120    0.04214835019369
H           1.72855866354832   -0.96683357885475   -0.01141314421727
H           1.25222905127443    1.73422085931341   -0.02385931105106
H          -1.47042953223887    1.89538061737470    0.02033193540462
H          -2.64284268068475   -5.04676273336544    0.04944424830820
H          -2.78070565973497   -2.42387064598310    0.04068936067253
H           1.76292321826888  -10.73880762184477   -0.04666108180060
H          -0.89178970089990  -11.48756049604152    0.06104104118466
H          -2.95895349985744   -9.67105153532888    0.86140776351150
H          -2.72422117797499   -8.24192512576682    0.02467337874873
