25
         -50.377961088713          0.000982799373
C           0.84133278553499   -0.39321743007026   -0.03222423184418
C           0.59695128774236    0.95278526516215   -0.02800048867446
C          -0.80841859872965    1.05982877406650    0.00851602136918
N          -1.37482494285887   -0.12330681256473    0.02353165675814
N          -0.37162873557599   -1.01099133721263   -0.00080197653538
C          -0.62430896113604   -2.35868496999553    0.00716242527917
S           0.65501762045366   -3.51803725953960   -0.02246426036456
C          -0.51394594954270   -4.82522310148702    0.00769677987230
C          -1.81201453548741   -4.33089663361565    0.03899840651236
C          -1.87473611603982   -2.94399593366029    0.03868823545337
N          -0.00810269669222   -6.05988539604513   -0.00203869965293
N          -0.84088474789067   -7.04311057774016    0.01876792980337
C          -0.30238934783169   -8.27779580465687    0.00948599334746
N           0.94756137033704   -8.70986382834223   -0.01665689402322
C           0.90125780354807  -10.05125807626740   -0.01168356695018
C          -0.39992065873582  -10.49686989992935    0.01661636262887
N          -1.13643306290163   -9.36394959795251    0.02990430862206
F          -2.50016045509809   -9.34422639211571    0.05878710320912
H           1.75162325313816   -0.95663205709052   -0.05478280297582
H           1.31037712848070    1.74994843206576   -0.04734731261921
H          -1.40913037470674    1.94702650448724    0.02268218669897
H          -2.65985210130429   -4.99116278274826    0.06082756975628
H          -2.77448473309238   -2.35739250121291    0.06018657783054
H           1.80248960237138  -10.63086433189572   -0.02948454988787
H          -0.84062483398218  -11.47120425163915    0.02825322638671
