32
         -60.235168936363          0.000371687380
C           0.82555060739096   -0.38613638247633   -0.11525388276496
C           0.51595253557838    0.98787111549474   -0.10666314913362
C          -0.84309228461370    1.06610783538859   -0.02305380229118
O          -1.39254343633239   -0.15630025582860    0.01996201583384
C          -0.37800649687080   -1.05263533537907   -0.03584914670727
C          -0.66550539615963   -2.45033440495553   -0.00691582778330
S           0.60526748050809   -3.61987503598438   -0.07463646369799
C          -0.55561135773883   -4.92750111337203    0.00761846157839
C          -1.85392299485741   -4.43456260484508    0.08274259201040
C          -1.91254644776726   -3.04916601999398    0.07448454966991
N          -0.04864991725572   -6.16254296447709   -0.01063694497799
N          -0.88015301363199   -7.14871167096106    0.04707303162992
C          -0.32836943792120   -8.37571353679936    0.03092668142399
N           0.93978344571170   -8.74171480097615   -0.02774458060397
C           0.95067196866282  -10.08230377715989   -0.01293248697575
C          -0.32909683300321  -10.57602784641125    0.05613475981891
N          -1.15716173613765   -9.49064222627147    0.08495168078746
C          -2.53474520535134   -9.53506100316802    0.15377347078242
C          -3.37578438613920  -10.61682504416254    0.21185493936162
C          -4.68227231739174  -10.07889175177876    0.26827165200004
C          -4.53493946312497   -8.72712308234502    0.24057021012286
O          -3.23385422139286   -8.39073930798124    0.17088335413374
H           1.79346757240621   -0.83976498943072   -0.17160098878658
H           1.20547200020960    1.80522994288715   -0.15554716963632
H          -1.51030157736045    1.90454279139783    0.01206263339034
H          -2.69936514709066   -5.09608066808972    0.14026921968589
H          -2.81992671200181   -2.47380286955091    0.12518755421013
H           1.87321372806264  -10.62697478726097   -0.05230215187742
H          -0.69771017516987  -11.57960221277514    0.08564529690466
H          -3.10796193023175  -11.65248233995080    0.21448709134907
H          -5.59815302577748  -10.63003149031224    0.32192964723309
H          -5.24628582520850   -7.92657416247035    0.26358775330985
