27
         -50.015140185340          0.000255931360
N           0.93215897706705   -0.26042223265569   -0.10160486064991
C           2.28198279016505   -0.09151357516670   -0.02432090944770
S           2.98317417419964    1.49046869528380   -0.02606493958990
C           4.60370387129225    0.79905211131215   -0.00216852063179
C           4.53844565709409   -0.58680845177369    0.00795394155460
C           3.24201980044776   -1.08653482153894   -0.00424349542916
N           5.61423305910268    1.66421157395295    0.00156754021303
N           6.81056459018501    1.17405039314741    0.03197673395877
C           7.81623492061071    2.06820831458313    0.04098610088970
N           7.79772659709113    3.38788604636800    0.03852013515805
C           9.08090176576240    3.78635279894225    0.05950615943836
C           9.92399229809134    2.70563442398562    0.07521941725597
N           9.12368429867617    1.59616459116983    0.06404010084721
C           9.56382850810266    0.28912607353966    0.07310590975018
C          10.84219679863109   -0.20681920765423    0.09500681687752
C          10.70353776548987   -1.61437117493886    0.09537055302549
C           9.36675428791326   -1.86170640421055    0.07384868798851
O           8.66943485945210   -0.71016745389994    0.06023940331720
H           0.35485745307033    0.54024641605004    0.09235010857632
H           0.56161630329215   -1.15368057203060    0.17889519886895
H           5.43405758286047   -1.18119365586400    0.02333780702239
H           2.99379610337908   -2.13317236223499   -0.00139453997698
H           9.33385769125350    4.82831398722107    0.06261716690963
H          10.99145077100544    2.64180866870792    0.09308857192229
H          11.75670327606113    0.34799411590658    0.10892136673557
H          11.49523196352443   -2.33456989568399    0.10970494596813
H           8.80433383617948   -2.77335840251842    0.06612059944748
