26
         -50.759025588073          0.000492136154
C          -1.22976197646469    0.06345715431574    0.01681634093651
N          -0.50867238211159    1.20052675085928    0.00031905728261
C           0.74681233030503    0.83511852295010   -0.02063465680729
N           0.87960764722452   -0.50779163714267   -0.01862101658819
H           1.73091693114633   -1.04634439089145   -0.03186486782567
C          -0.38759765260333   -1.03967236873121    0.00556749111373
C          -0.65890175625505   -2.43506067955091    0.01426585810687
S           0.61747660842279   -3.60729813076146   -0.00758765593358
C          -0.53981204108739   -4.91855579735143    0.01689680449997
C          -1.84310255090621   -4.42628165190561    0.04091403623237
C          -1.90665844442565   -3.04405076002095    0.03925632459860
N          -0.03116559463286   -6.14768000681595    0.00709639664098
N          -0.86719906974005   -7.13349226735429    0.02667021740390
C          -0.33217438869696   -8.36658310736475    0.01026372049651
N           0.90504777901624   -8.79977623426597   -0.03179819189134
C           0.84654545056644  -10.14670843612848   -0.03217547887507
C          -0.45075665140528  -10.58132996370822    0.01047384157096
N          -1.22265673128154   -9.44647236510588    0.03799013709678
C          -2.54248522409301   -9.36957119412119    0.08228197638197
N          -3.68488197873384   -9.30691166120822    0.11894747344211
H          -2.29999807346799    0.08800350302289    0.03550213895977
H           1.57751238027291    1.51169359473306   -0.03751541927264
H          -2.68892199030129   -5.08994646166218    0.05828534820311
H          -2.82158624590691   -2.48036488073266    0.05546987069379
H           1.74310972975964  -10.73357353785615   -0.06326461382575
H          -0.88143610460009  -11.56172399320143    0.02333486735904
