32
         -59.410608857140          0.000639120654
C           0.87249653298523   -0.34259533843228   -0.05953507613040
C           0.56928212609685    1.03265288334695   -0.05231943867067
C          -0.79124827521188    1.11725469703713   -0.00252638905299
O          -1.34729974116037   -0.10234477582526    0.02135989995612
C          -0.33581810365379   -1.00371107861691   -0.01321765155486
C          -0.63418271299934   -2.39897957636477    0.00243048488743
S           0.62305814568706   -3.58365451918517   -0.03725970408037
C          -0.55443376003137   -4.87973407556475    0.01088602906698
C          -1.84780420261901   -4.36826208071559    0.05423369093490
C          -1.88987441003256   -2.98295820946596    0.04946559869333
N          -0.05464946928139   -6.11687588400064   -0.00067070512271
N          -0.88707803863554   -7.10515317698553    0.03691131803723
C          -0.33333307182302   -8.33171720462238    0.02354888135233
N           0.94033356347844   -8.68102605468632   -0.02264451520409
C           0.96981839849382  -10.02044024167058   -0.01509670036214
C          -0.30540558880963  -10.53003106506045    0.03664008412322
N          -1.14874167256940   -9.46009433675414    0.06187340069140
C          -2.52513713491417   -9.51898227528281    0.11437386726889
C          -3.42113435871974   -8.49016542165109    0.14767014431506
C          -4.75689109952498   -8.93976717642584    0.19882488463047
C          -4.86356945551490  -10.29218805577056    0.20404478753322
S          -3.32896057674051  -11.06523348879354    0.14626564636359
H           1.83939631793562   -0.80069066015779   -0.09382680696541
H           1.26355287812037    1.84695444364200   -0.08012108292553
H          -1.45534390568963    1.95859288594773    0.01960364544396
H          -2.71164310429114   -5.00713318491729    0.08744248497981
H          -2.79206121115035   -2.39835288990604    0.07889181927667
H           1.89928844884533  -10.55356860723266   -0.04687138519291
H          -0.66641031696903  -11.53833661593115    0.05697584733143
H          -3.11155404262364   -7.46315553964949    0.13515066947676
H          -5.60365471688871   -8.27821668102110    0.23051187918722
H          -5.74844744178864  -10.89546669528372    0.23831439171206
