25
         -46.576702021782          0.000804950450
H           1.03384885609632   -0.32016350471378   -0.00960321434668
C           2.10253424149820   -0.23021654051594   -0.01161786993903
S           2.81923832224369    1.32155704941426   -0.02152671805638
C           4.41465069402562    0.60845585117725   -0.01974971321053
C           4.33850291763421   -0.77527735385946   -0.01227220412091
C           3.02353517520856   -1.24308243623365   -0.00797453060184
N           5.45327453397494    1.45933202189222   -0.02536052321718
N           6.62691220732569    0.93092952395132   -0.02447008763414
C           7.66984743963697    1.78019779899036   -0.02925938775587
N           7.70750301120896    3.10055215644650   -0.03245411894578
C           9.00317782031628    3.44436043177928   -0.03506826777445
C           9.80106709551250    2.32593225351242   -0.03431199855183
N           8.95701870766526    1.25393310812775   -0.03032779427277
C           9.33959437370050   -0.07240227485298   -0.02818634978508
C          10.59466478918310   -0.62505893561471   -0.02661542823030
C          10.39320975617190   -2.02461674191062   -0.02379396362405
C           9.04595072116450   -2.21145644361967   -0.02671715104587
O           8.40105522705646   -1.03086692595308   -0.02687942303201
H           5.22201966687249   -1.38712941966839   -0.01065581349340
H           2.75401893062505   -2.28446797914881   -0.00227580329707
H           9.30093770310214    4.47421752303570   -0.03760747570610
H          10.86520064089705    2.21836805364279   -0.03594328963450
H          11.53361474214303   -0.11250781494952   -0.02612107348619
H          11.15190489803453   -2.77946538470486   -0.02148526476560
H           8.44380752870201   -3.09749401622450   -0.02636253547235
