21
         -40.885477503471          0.000425235405
N           1.03941602433883   -0.21622046341666   -0.04160896899714
C           2.38186263518141   -0.05052452261858    0.03897299856636
S           3.08885863989292    1.52713997002764    0.04514803812171
C           4.70687316637548    0.82697156264214    0.07938562617160
C           4.63439680737407   -0.56310996156768    0.08868753682372
C           3.33972676745631   -1.05393716588842    0.06615540092103
N           5.72160088179082    1.67921078270541    0.08554264262576
N           6.91601365899810    1.17758825562541    0.11170496633150
C           7.93282202350632    2.05723325943512    0.11385483959017
N           7.98402946442565    3.36656165250844    0.10268321523795
C           9.29148618395065    3.70573646175839    0.11262406379374
C          10.08719192833936    2.59506540600834    0.13025810890359
N           9.22737318369552    1.52155427884005    0.13187927895621
C           9.53910422837129    0.23792891430764    0.14581700278002
N           9.81300617501899   -0.87394710982520    0.15825878546108
H           0.44619753041695    0.58063294148022    0.10979329889057
H           0.65629665758108   -1.12435353521620    0.15955869984457
H           5.52685812631522   -1.16240808766811    0.11107950669747
H           3.08559649912517   -2.09883980436593    0.06625755018601
H           9.58902814695530    4.73569381911102    0.10633192088614
H          11.15053127089053    2.46903334611697    0.14130548820784
