25
         -46.579914898356          0.000514603992
C           0.85125748621929   -0.35386166035086   -0.01771735120239
C           0.53134213696816    1.01803532491988   -0.01288982097923
C          -0.83049833668703    1.08627272574540    0.01815369409743
O          -1.37201031972053   -0.14036220411014    0.03365241433939
C          -0.34950567420046   -1.02909229226028    0.01073016706775
C          -0.63234463649896   -2.42813055588100    0.01919753333337
S           0.64022873116410   -3.59774132265843   -0.00886901498114
C          -0.52186497130946   -4.90551118441791    0.01906179306211
C          -1.82151067950516   -4.41265576321261    0.04922206739966
C          -1.88073506225898   -3.02710818995924    0.04931093921263
N          -0.01756989282567   -6.14404135255309    0.00742475231355
N          -0.85605729822103   -7.12449945099790    0.02761142325515
C          -0.32833559530926   -8.36578476813575    0.01418455388130
N           0.92442404806203   -8.79416138503433   -0.01671817897756
C           0.86089684934891  -10.13255723729121   -0.01656576530481
C          -0.45048647037634  -10.55669973997670    0.01559732197333
N          -1.19884441677145   -9.42781639545500    0.03471612078079
H          -2.20251459928668   -9.35633170702469    0.05933309960221
H           1.82417502753559   -0.79989554690789   -0.03925510923480
H           1.21636705591267    1.84053096935382   -0.02999463342143
H          -1.50549099610354    1.91913016433812    0.03230463148771
H          -2.67240722993618   -5.06924666753919    0.06994475633611
H          -2.79031454910862   -2.45359675079520    0.07022856954121
H           1.75308020013903  -10.72674362701104   -0.03880860808180
H          -0.87888080723046  -11.53811138278469    0.02542464449937
