28
         -49.408238671325          0.000730371143
C          -1.21720397196998    0.06427285267216    0.02157816804106
N          -0.48515440896584    1.19698371946034   -0.00085502572784
C           0.76565535210405    0.81949500931840   -0.02491252147756
N           0.88474951127449   -0.52570876772800   -0.02342612980579
H           1.72961791200914   -1.07387777021863   -0.04018990714411
C          -0.38693789919044   -1.04479002399793    0.00620687567417
C          -0.66739897936903   -2.44063018790881    0.01633530010964
S           0.60825859737057   -3.61889875619693   -0.01000329634995
C          -0.54972780432120   -4.92805986866287    0.01955154477191
C          -1.84743046802337   -4.43380699134594    0.04824676444447
C          -1.91082294375965   -3.04722360186532    0.04645948547628
N          -0.03344052646442   -6.16009973815271    0.00785085067258
N          -0.86038752254754   -7.15160907954035    0.03017041966140
C          -0.31426201524902   -8.38264765494028    0.01464242763846
N           0.95228742036508   -8.77894162750731   -0.02067233316190
C           0.92011984707499  -10.11549935448740   -0.02123984292663
C          -0.38428443773928  -10.56616222915393    0.01411415255325
N          -1.16502993350075   -9.46305208998875    0.03688005740860
C          -2.59733599358623   -9.40324912692829    0.07609613410229
H          -2.28707815332340    0.09886900879962    0.04468599533933
H           1.60369306143599    1.48676247172821   -0.04558637193189
H          -2.69712994379351   -5.09204071316975    0.06907876334998
H          -2.82639320308729   -2.48415674920422    0.06614378235043
H           1.82393372186628  -10.69155448156470   -0.04677085218384
H          -0.78878129146316  -11.55823370439747    0.02398258375698
H          -3.00199939165736  -10.41381729076378    0.08680051229393
H          -2.97220032259280   -8.86879982687310   -0.79812983532674
H          -2.92377621289575   -8.86944342738219    0.96990229839158
