25
         -50.742325329269          0.000740788912
C           0.85764035339048   -0.33315225450641   -0.02429639517825
C           0.53196064577054    1.03668847078072   -0.02037774331522
C          -0.83064387186529    1.09865691538511    0.01249260859522
O          -1.36660458282559   -0.12906740604642    0.02820384133639
C          -0.34084161146865   -1.01351821939443    0.00619190277616
C          -0.61738127654189   -2.41301836443540    0.01605772238178
S           0.65850460560455   -3.57622749101252   -0.01263552771352
C          -0.50021769618535   -4.88723893383938    0.01727455943391
C          -1.80342370085585   -4.39927137300922    0.04825913881850
C          -1.86618079662361   -3.01574680289613    0.04742128163484
N           0.00344079802018   -6.12338808332111    0.00619307955109
N          -0.83584464218306   -7.10212056290117    0.02693852667684
C          -0.31001772083894   -8.34222309810896    0.01420124758400
N           0.93264125370510   -8.79236462389934   -0.01667798305962
C           0.86664447452340  -10.13329022420136   -0.01526032182601
C          -0.44024571527825  -10.55989222312947    0.01688807273652
N          -1.16029392877573   -9.41594566006805    0.03499040811475
F          -2.52383255724289   -9.37715885415192    0.06869872149639
H           1.83235224515884   -0.77508273841760   -0.04657944669674
H           1.21288458161405    1.86226129249207   -0.03909807724258
H          -1.50885488594952    1.92884883557959    0.02646129583104
H          -2.65045189858187   -5.06084222326773    0.06988719873424
H          -2.77670318281366   -2.44405918020884    0.06860206474900
H           1.75939220152071  -10.72568875756497   -0.03752259816959
H          -0.89589309127826  -11.52727843985729    0.02785642275072
