26
         -50.739028178660          0.000810693176
C           0.83689688208186   -0.41379070185769   -0.03141869199168
C           0.59279281790377    0.93170352573681   -0.02576262939178
C          -0.81364484138915    1.03909988939747    0.01278699462931
N          -1.37981400677688   -0.14325164236830    0.02884290649087
N          -0.37671234736986   -1.03165573695367    0.00212128339875
C          -0.63120213655219   -2.37756305505785    0.00998101088754
S           0.64332458457002   -3.53977446511133   -0.02290461063227
C          -0.53052631551382   -4.84362016641333    0.00934428243505
C          -1.82890385136283   -4.34432935281036    0.04347938506708
C          -1.88565033185298   -2.95874012222765    0.04388826855493
N          -0.02815701431954   -6.07614974759912   -0.00192530503010
N          -0.86307935489599   -7.06093838398577    0.01986500600435
C          -0.32272600288439   -8.29308194165913    0.01023999572731
N           0.91780393426325   -8.71753404860104   -0.01354186929035
C           0.86949680727755  -10.06457646358832   -0.00967851761788
C          -0.42539146344272  -10.50813683052692    0.01691499773394
N          -1.20553849290225   -9.37885563549715    0.03017599110557
C          -2.52680017561758   -9.31500245080179    0.05648323246614
N          -3.67031358050102   -9.26838546019294    0.07935923162050
H           1.74744496761443   -0.97678290120281   -0.05591182856415
H           1.30603777549054    1.72890363020681   -0.04580612972866
H          -1.41378673710315    1.92659601609004    0.02859738064502
H          -2.67928715505154   -5.00172927632943    0.06669915172725
H          -2.78304553369653   -2.36857878258226    0.06737258875078
H           1.77066288495550  -10.64479927034048   -0.02627249917675
H          -0.84927131292459  -11.49150662572390    0.02733037417924
