25
         -49.916965696799          0.000207677410
C           0.91587309881138   -0.46421377461992   -0.02595502939074
C           0.84151252337317    0.93751206978516   -0.03145378493542
C          -0.44014907509302    1.39602937908587   -0.00412076556539
S          -1.58908552002105    0.12330856578610    0.02977773132435
C          -0.31829861330411   -1.06977663253127    0.00593961598109
C          -0.61355150709436   -2.46077524194674    0.01871912959170
S           0.64857411948832   -3.64592403903278   -0.01015693466122
C          -0.52527385707259   -4.94223196319959    0.02288243803883
C          -1.82267297516793   -4.43781955710310    0.05505482916976
C          -1.86769985176141   -3.05438128874446    0.05248302655997
N          -0.03137707387622   -6.18089605778522    0.00916866034572
N          -0.87383962401458   -7.15739804600543    0.03415312872803
C          -0.34628558032044   -8.39671089160023    0.01407223012708
N           0.89832659950362   -8.84135504189561   -0.03066378180444
C           0.83840565685944  -10.18262324905881   -0.03265273098626
C          -0.46626392737518  -10.61520236309341    0.01134796612328
N          -1.19132343276893   -9.47447121948783    0.04010663175415
F          -2.55486210370094   -9.44243065847575    0.08759780367167
H           1.83342559479989   -1.02421835936451   -0.04439054379372
H           1.70199205091987    1.58151570074902   -0.05485133796580
H          -0.78271621526095    2.41164627544645   -0.00157029188016
H          -2.67794636708529   -5.08867336230543    0.07837032574494
H          -2.77428696194631   -2.47469993958335    0.07395333012953
H           1.73374919261885  -10.77077082708882   -0.06579501306322
H          -0.91732615051088  -11.58479947792983    0.02391336675669
