32
         -59.066197966771          0.000170011749
C          -1.16420080689973    0.11151118898588   -0.09780119676272
N          -0.42782019166889    1.23395791889420   -0.22105709158746
C           0.81178337009432    0.84167696409569   -0.35467756917404
N           0.91933472222708   -0.50390034792106   -0.32399472202299
H           1.75446775213288   -1.06131571357069   -0.40460632524103
C          -0.34820961611327   -1.00751260269578   -0.15803605408493
C          -0.64074272638752   -2.39797230224623   -0.07940649501410
S           0.60955071935340   -3.59648498088713   -0.19290616965782
C          -0.55780264773416   -4.88689923042205   -0.01316098273331
C          -1.84069548082613   -4.36854652002647    0.12530521586244
C          -1.88481427967213   -2.98321655885452    0.08811487083658
N          -0.05643110198506   -6.12190657692503   -0.03742258728607
N          -0.88076756926467   -7.10979215164297    0.09314419906857
C          -0.32796676441763   -8.33567616942027    0.05876807625560
N           0.93749297704031   -8.68522152233248   -0.09461676783059
C           0.97019716502541  -10.02407512032806   -0.06018059612496
C          -0.29434027011563  -10.53230204014821    0.11795136122788
N          -1.13406800995541   -9.46245990848637    0.19529322889877
C          -2.49993026161755   -9.52058191345227    0.37346763130976
C          -3.39294896772267   -8.49180829404697    0.45494429019281
C          -4.71700411871046   -8.94069670653490    0.64018530573176
C          -4.81774220220007  -10.29240183911409    0.69736975234776
S          -3.29186765310357  -11.06559576008771    0.52609152028502
H          -2.22666139939106    0.15905322210038    0.02591227270048
H           1.64942554088441    1.49891480666036   -0.47478323819166
H          -2.69820308483854   -5.00499203956841    0.24765093557099
H          -2.78646612836367   -2.40502700838721    0.17883623132343
H           1.89394113639170  -10.55782769268800   -0.16435127885358
H          -0.64957815323509  -11.54002933734914    0.19306685024368
H          -3.09063311969969   -7.46508815504294    0.38253052332033
H          -5.55996373850396   -8.27924266146735    0.72707162194197
H          -5.69387509072293  -10.89477094709017    0.82993718744746
