32
         -59.890816238977          0.000535159164
C          -1.23373426821684    0.05815458545054    0.02140816526568
N          -0.50201040798841    1.19002581788137   -0.02048599682910
C           0.74725773871284    0.81199040339069   -0.08643605996750
N           0.86567868843575   -0.53318581869300   -0.08917121864597
H           1.70900092444853   -1.08216317029710   -0.13288203690459
C          -0.40480431897193   -1.05180595868734   -0.01993859488229
C          -0.68446563060121   -2.44754859117370   -0.00008593956062
S           0.59067178228297   -3.62417499176783   -0.05889623963733
C          -0.56586847185135   -4.93370730892186    0.00668778465962
C          -1.86365378696548   -4.44077486598590    0.06957903296528
C          -1.92759099728560   -3.05506318436997    0.06567643544993
N          -0.05294127398485   -6.16517892323896   -0.01021701676244
N          -0.88299739025926   -7.15382275449929    0.03660913826691
C          -0.32991971561142   -8.37939766734904    0.02397854237248
N           0.93963827272717   -8.74357745279067   -0.01896908772930
C           0.95166929867011  -10.08409739278628   -0.00608556323782
C          -0.32850316335130  -10.57918730290247    0.04548217716340
N          -1.15815602149855   -9.49514249833175    0.06549782896986
C          -2.53649825066422   -9.54208889867148    0.11695313120549
C          -3.37565994240330  -10.62564170203040    0.16897048396491
C          -4.68399017924481  -10.09078686392680    0.20663485025759
C          -4.53986296101388   -8.73878421915465    0.17399255572178
O          -3.23869529314855   -8.39937822693783    0.12011213577157
H          -2.30224777336284    0.09352594472359    0.07869623087564
H           1.58420091794609    1.47942450668794   -0.13292102214357
H          -2.70700765451421   -5.10575121654635    0.11569285643255
H          -2.84152985580171   -2.49076312307510    0.10899425070449
H           1.87504721169393  -10.62806591448478   -0.03417677259522
H          -0.69634976235904  -11.58322127429761    0.06830832236038
H          -3.10567198205575  -11.66057631368257    0.17997021360769
H          -5.59887677643906  -10.64412379683215    0.25136916419627
H          -5.25389895732359   -7.94036182669964    0.18398224868406
