32
         -59.552200779820          0.000538913506
C          -1.35964413410047    0.00280832776581    0.58085759476362
N          -0.72691562529391    1.12485994303453    0.97657193079784
C           0.43274172171393    0.74258821233526    1.44274986090777
N           0.58834191983202   -0.59677623219458    1.36754017452718
H           1.38375635604568   -1.14351306408416    1.65576629284186
C          -0.56036020022707   -1.10660246741351    0.81223840017104
C          -0.77780722582089   -2.49132818129410    0.57169975022011
S           0.42651696704896   -3.68323360388040    0.95405700435964
C          -0.62236800284946   -4.97214718330769    0.40961427250335
C          -1.83060725255304   -4.45802887927737   -0.05301881204741
C          -1.91071724190389   -3.07669023868490    0.03138147644704
N          -0.10623202283114   -6.19922276378271    0.43352118905509
N          -0.90175842383748   -7.19655980663398    0.22771592241833
C          -0.33814016731880   -8.41521329289445    0.12619377422114
N           0.93677044531434   -8.76616138473450    0.07193367598772
C           0.95327419921697  -10.09587632357354   -0.07586059108109
C          -0.32977439600491  -10.59799455607547   -0.11522932167709
N          -1.15977819896697   -9.52944070828059    0.00966509776787
C          -2.53984571633083   -9.54878957584706    0.03082698115677
C          -3.45819087692455  -10.56830536799292   -0.08016393986847
N          -4.70820313301957  -10.05509080723983    0.00374783322584
C          -4.56715103874085   -8.76721135005314    0.15993669600430
N          -3.26544011527144   -8.40137898551754    0.18535125693893
H          -2.79787550882633   -7.50218284967706    0.28179123998442
H          -2.34097405530435    0.04329985925356    0.15461893579193
H           1.17772937721764    1.40227522968821    1.83980091708316
H          -2.60046176713648   -5.08809746960477   -0.46203128907462
H          -2.76325632681952   -2.50217919349522   -0.28213379284276
H           1.87880214144354  -10.63138802954140   -0.14981114441158
H          -0.69742988659390  -11.59720261512888   -0.21963850389069
H          -3.29958517647269  -11.61844175183433   -0.21331090870430
H          -5.37616663468628   -8.07262489003163    0.25967802642258
