20
         -36.329406334473          0.000551581587
H           1.05516864563754   -0.22263486254848    0.16140122913390
C           2.12229056004884   -0.12539780889201    0.12247113398795
S           2.83195586366938    1.42994386829501    0.18589121433834
C           4.43028498625972    0.73155459206983    0.08313805346794
C           4.35987126330948   -0.64950249835067    0.00112946134311
C           3.04753425341383   -1.12737848088132    0.02252220468656
N           5.45827356457114    1.59684287775239    0.07239735273943
N           6.64295846539274    1.09199350162633    0.04824660350690
C           7.68623007355851    1.93908400689684    0.02351897874077
N           7.79322105226888    3.26308205487959    0.02791482457668
C           9.10049010712964    3.52759602861944    0.01839141495736
C           9.84206580504557    2.35798187698381   -0.00215877973844
N           8.93713036091281    1.35962996068409    0.00459670460001
N           9.17351173714343   -0.00046351532324   -0.08408089172818
H           5.23758858668242   -1.26482245483020   -0.07856212415820
H           2.78720604859728   -2.16968172960393   -0.03235573256622
H           9.46066446745101    4.53715661492510    0.02487720168141
H          10.89732747542835    2.17968040145306   -0.01421770675782
H           9.74459875725215   -0.32823752348094    0.69228957392485
H           8.26021792622720   -0.45422691027463   -0.06962071673635
