27
         -49.643377904629          0.000805232762
C          -1.24051665952228    0.04268297125812    0.02485168100226
N          -0.52303390886359    1.18445239055416    0.00152547655307
C           0.73250184878674    0.82313936383795   -0.01878072116939
N           0.86933561488409   -0.52043595713169   -0.00918416997126
H           1.72116575201517   -1.05784415169389   -0.02115567295614
C          -0.39579264924471   -1.05557139900423    0.01883290039907
C          -0.66098303561130   -2.45449495001502    0.03303082172096
S           0.62488462277301   -3.62153831679929    0.02759128255419
C          -0.52169709812468   -4.94063816864129    0.04494040891393
C          -1.82380134579623   -4.45736133077663    0.05500110337588
C          -1.89924767103163   -3.07137770673391    0.04744427600436
N           0.00486693318603   -6.16853906710220    0.02499485842230
N          -0.81395219360660   -7.16735037911320    0.05477808059807
C          -0.28181097090006   -8.40091710548272    0.02173549174145
N           0.96484804249261   -8.85571113759975   -0.03282605646816
C           0.87232172681136  -10.18686184270056   -0.02218706653424
C          -0.45114664154049  -10.59037857805385    0.02971507363211
N          -1.17296833034222   -9.45199893805598    0.06030471700988
N          -2.55065484807678   -9.32130768614110    0.03909633153965
H          -2.31081141798604    0.06343449917397    0.04446159519476
H           1.56177248921261    1.50124604433701   -0.04074176932581
H          -2.67206202549103   -5.11779876465325    0.06146293261633
H          -2.82042562626597   -2.51746777491089    0.05085822291731
H           1.74920973814726  -10.80248568623011   -0.05420039228857
H          -0.90284128552607  -11.56045900576967    0.05250365138821
H          -2.97519057183845   -9.75259221501564    0.85770069688627
H          -2.74571048854068   -8.32077510753618    0.02639624624344
