25
         -46.238038640769          0.000462541838
H           0.95210737453315   -0.27818983938753   -0.50496654951086
C           2.00562979819469   -0.16489442436456   -0.34080076850547
S           2.78594861543967    1.27707364092698   -0.82588522982621
C           4.32489008623680    0.65814456540639   -0.27313397705134
C           4.17907649382421   -0.60904993127094    0.27330705572183
C           2.85969869221082   -1.06427410855211    0.23689439718643
N           5.37166310591050    1.48813734399509   -0.36976280168314
N           6.54717541489900    0.99190161595426   -0.19815597187797
C           7.58435451918630    1.85258652492422   -0.17923105734866
N           7.59993437452746    3.17531496753846   -0.17672500213971
C           8.88631262697454    3.53519605936061   -0.10651335513746
C           9.70116873951238    2.42370295841369   -0.06537094061518
N           8.87610503071507    1.34580752001475   -0.10730600381709
C           9.24723770689548    0.01604521118024   -0.09498659117053
C          10.47280966002574   -0.60655629251625   -0.01799819485152
N          10.29485059807436   -1.94824584163323   -0.04104559339363
C           9.00798905914133   -2.14690399143131   -0.12976917117910
N           8.31891474803548   -0.98405810707919   -0.16739472285845
H           7.32590568429264   -0.76758633129376   -0.22539303242717
H           4.99942633611544   -1.15244250155484    0.70758821899193
H           2.54466176668068   -2.02040534351744    0.61547045766162
H           9.17068139408061    4.56835849674994   -0.08644351026838
H          10.76527614578029    2.32706744789444   -0.01080440978520
H          11.45200871099505   -0.17997367694578    0.05275750856451
H           8.54084331771826   -3.10971596281210   -0.17029075467918
