25
         -45.752365271098          0.000442725093
H           0.88994466681567   -0.07250937888629    0.35016151264516
C           1.94746322467389    0.02216377058453    0.19964518792408
S           2.76077053807454    1.41368547671011    0.77099742096768
C           4.28557365364943    0.79207874263684    0.18402660230648
C           4.11250128356379   -0.43769468743131   -0.43294158741826
C           2.78306791509215   -0.86428373498652   -0.42368538443005
N           5.35298552638080    1.58979631485408    0.33039768471040
N           6.50766042016811    1.08545146150685    0.07241423721321
C           7.55417644141213    1.92942371508539    0.07253639439417
N           7.57602527072263    3.25071528617147    0.05762760436459
C           8.86291777643475    3.60860148485314   -0.05065867661730
C           9.67003779814676    2.49697159719973   -0.10179252701266
N           8.84394533701122    1.41679952326808   -0.02852963966592
C           9.23243465650829    0.09398826607098   -0.03855790930974
C           8.47883271681390   -1.01652960296168    0.21143985299462
C           9.22469163681680   -2.20847163798875    0.09681848722477
C          10.52421854634818   -1.99499099637788   -0.22914262400732
S          10.88227553524886   -0.32343140031412   -0.41123471490911
H           4.93035937603715   -0.97229543270032   -0.88134349129755
H           2.44613430457589   -1.79048333999651   -0.85463081429695
H           9.14795165507268    4.64112673380058   -0.09009822454141
H          10.73342470394170    2.39567640464726   -0.18120118908072
H           7.43681734589680   -0.96533264138805    0.46365442907690
H           8.80637251822963   -3.18578877426172    0.25627873594588
H          11.30639715236401   -2.71326715009601   -0.37198136718077
