26
         -51.103682068276          0.000398839627
C           0.85795684888101   -0.35028466002988   -0.01052060046978
C           0.53299752260392    1.01906911135946   -0.00762965924074
C          -0.83041067032103    1.08150778922711    0.01413737747156
O          -1.36685195840532   -0.14516944514541    0.02449888023936
C          -0.34159361332893   -1.03081861558671    0.00972422662012
C          -0.61981185058719   -2.42909537732815    0.01636805030809
S           0.65204535882634   -3.59519909121898   -0.00361756691034
C          -0.51194066410165   -4.90364471879139    0.01796824160107
C          -1.81569625796109   -4.41037350370594    0.03930034932662
C          -1.87270218221423   -3.02825327390693    0.03833886243670
N          -0.01351678583891   -6.13835337778966    0.00909014978410
N          -0.85781660327051   -7.11664992939749    0.02740721191620
C          -0.33236779708035   -8.35448216882307    0.01196125353270
N           0.90115056540183   -8.79735905180340   -0.02931451513188
C           0.83292944647901  -10.14381037445070   -0.02889199374356
C          -0.46741389950542  -10.56883754166688    0.01350031372495
N          -1.23106064468750   -9.42811099030146    0.04005872159499
C          -2.55042419881759   -9.34358697020695    0.08257662520003
N          -3.69252445634381   -9.27704374309531    0.11820104101147
H           1.83275115929888   -0.79240636700624   -0.02538609220165
H           1.21441308149061    1.84433249744227   -0.01987656251919
H          -1.50787542219519    1.91240261355099    0.02345087640914
H          -2.66434626040581   -5.07047659238791    0.05458489998544
H          -2.78054898469229   -2.45212237624014    0.05287806377701
H           1.72513221875576  -10.73725048879309   -0.05916912164747
H          -0.90543395198050  -11.54597335390434    0.02708096692510
