23
         -39.532011152498          0.000812146375
N           0.92477998062782   -0.20877901831582   -0.08580353853935
C           2.27757625489023   -0.06178677405485    0.01484220583174
S           3.00269588033866    1.51046272021214    0.02479279756932
C           4.61314453989197    0.79707089987086    0.06558194114195
C           4.52692397455418   -0.58634515850741    0.07555968323461
C           3.22205099440263   -1.06844780260507    0.04730219900936
N           5.63162125182781    1.65541241763502    0.07401903276259
N           6.82757717536613    1.16619995331211    0.10390147078358
C           7.83815330064962    2.06072444727956    0.10644109859867
N           7.83969706768996    3.38651481366127    0.09318916554656
C           9.12876902536222    3.75335387865253    0.10263452331056
C           9.94532639284957    2.64434337380632    0.12198692480065
N           9.12129937914784    1.56888692387414    0.12519592478879
C           9.48848704760305    0.18310237557758    0.14087225667750
H           0.36037109326708    0.59812928223286    0.12222936280697
H           0.54072609782124   -1.09811989095643    0.18952628832277
H           5.40886039735449   -1.20059509260972    0.10295778396871
H           2.96109240162793   -2.11208145069714    0.04672761814245
H           9.40917410904890    4.78831936288707    0.09510130906824
H          11.01262324164120    2.55013224468842    0.13307194690400
H          10.57373337592994    0.09565726276350    0.15428969432069
H           9.09254688111973   -0.31805157187846   -0.74401768762650
H           9.07165013698777   -0.30334319682835    1.02435799857603
