29
         -52.984212886256          0.000586794034
C           3.59923084800649   -1.04704989066945    0.67955662942447
O           4.01386551256212    0.29401901253198    0.84083952318596
C           4.04579793886939    1.06105019234709   -0.25939085305560
S           4.54715581909887    2.70206282547843   -0.05632896697560
C           4.34475986796641    2.99053508243995   -1.78031641505076
C           3.90782529659632    1.84351596190877   -2.42119848714406
C           3.73584972586379    0.75530797802378   -1.56560507469280
N           4.58268139719853    4.23266385581465   -2.21371120751309
N           4.53355972154601    4.42579225705612   -3.48788195112692
C           4.64610913694301    5.69348544696034   -3.92072835989064
N           4.58315466632888    6.83462388224696   -3.25899570799183
C           4.63660396225331    7.81071674510530   -4.17827048431736
C           4.73523617992796    7.28070665381662   -5.44140650558857
N           4.74112429510294    5.92604946540751   -5.28956601919291
C           4.82893599334318    4.98942046650517   -6.29596883275965
C           5.13990795876579    3.66438836749749   -6.19591321431615
C           5.11677470597220    3.01099952224688   -7.44623768549735
C           4.79844378062555    3.83762226128072   -8.47353042306141
S           4.50980099636622    5.44884396055393   -7.94551623138302
H           3.65092116041486   -1.49289126562381    1.67041396646441
H           4.26327554917606   -1.58625196203998   -0.00167288875653
H           2.57279302911311   -1.09934564213174    0.30592810076861
H           3.71180568725028    1.82503862683785   -3.47812421364509
H           3.39819873362764   -0.21048847629910   -1.89497119618838
H           4.59879502555952    8.84256558642971   -3.89015962314588
H           4.80230244823253    7.74400305463119   -6.40487740462030
H           5.37111084967387    3.19304611417517   -5.26004895552986
H           5.33553560622889    1.96605617653341   -7.57209198538742
H           4.71699410738455    3.60970374093618   -9.51730553301114
