24
         -43.564847568927          0.000972439190
C           1.34971013762682   -0.04249233325515   -0.57505006372559
O           2.47321339241011   -0.24173745980586    0.25367683238475
C           2.96129999767282    0.82705587901524    0.88816158678594
S           2.30019264492746    2.42084253000821    0.72580665313166
C           3.50312446488548    3.05573955545345    1.83692960640169
C           4.34340718708207    2.04508239418685    2.27375935241496
C           4.04178206778822    0.79380985171129    1.74181863999645
N           3.43527193066247    4.36754639745007    2.07852573442464
N           4.29084223433891    4.86334228201395    2.90847343256614
C           4.24389935406111    6.18964877175889    3.13195679717417
N           3.50750507441773    7.17722101592714    2.63835739915091
C           3.95047709981790    8.29450830976292    3.22242079885629
C           4.97544371692589    8.01662730212852    4.10819502456485
N           5.15605028314690    6.68095618127464    4.03932134564631
N           6.01879131274259    5.90061918134343    4.79191285749847
H           1.10012583593941   -1.01772146647015   -0.98698412287373
H           1.58013461075127    0.65804192164687   -1.38300257122063
H           0.50557652918668    0.34821900343325    0.00046172238214
H           5.14742014162861    2.23565238667801    2.96122418268101
H           4.57663587366403   -0.11189316021127    1.95882760579416
H           3.52019007392576    9.24798647113573    2.98833804635562
H           5.56343077092528    8.64532649385303    4.74405037628418
H           6.98907434438360    6.15285026348803    4.61534554757213
H           5.85134092108936    4.93585822747280    4.50677321575319
