32
         -59.871187188769          0.000310065780
C           0.80933369280555   -0.43808045286230   -0.06747865567311
C           0.56828006917874    0.90953008923259   -0.06991572232352
C          -0.83551490631410    1.01977338470892   -0.02457228385960
N          -1.40434511573405   -0.16302690964119    0.00319562831393
N          -0.40353689853833   -1.05215334317595   -0.02294661058521
C          -0.65925935652839   -2.40089568378567   -0.00441348267574
S           0.61937344580071   -3.56235451034326   -0.03814326884685
C          -0.54967357983194   -4.86895351081497    0.00999939054267
C          -1.84566084330979   -4.37409743098041    0.04930335157792
C          -1.90792350012211   -2.98514728438036    0.04122046045297
N          -0.03761232545942   -6.10193769716312    0.00172625327502
N          -0.86521576330139   -7.09129150475285    0.03605033825053
C          -0.31007290969956   -8.31649791579160    0.02495804490550
N           0.95991084256554   -8.67923237435870   -0.01865233236723
C           0.97359711174211  -10.01945278239704   -0.01080863164684
C          -0.30639537360877  -10.51619832497565    0.03846045734606
N          -1.13687538465189   -9.43336806611043    0.06172533128353
C          -2.51536007142441   -9.48097991966942    0.11166287838086
C          -3.35515560820352  -10.56476424089381    0.14311139563417
C          -4.66307580382597  -10.02959286352377    0.19023054682812
C          -4.51766230190566   -8.67725049701579    0.18347428767030
O          -3.21646490689915   -8.33796262625518    0.13595341020286
H           1.71867732376428   -1.00296217018569   -0.09303635566690
H           1.28386357203410    1.70446548849936   -0.09957001333619
H          -1.43459266628943    1.90814674842822   -0.01173849996240
H          -2.69269152853155   -5.03484991595938    0.08221011894240
H          -2.80773415473457   -2.39862269867872    0.06670450133959
H           1.89760132530980  -10.56216195318532   -0.04085609221603
H          -0.67259226150784  -11.52085996457273    0.05811896946185
H          -3.08553521921567  -11.59991975201338    0.13404195472996
H          -5.57865873461752  -10.58267350875180    0.22401312603678
H          -5.23051816894506   -7.87811780863114    0.20846150398461
