19
         -37.444512610563          0.000358238931
H           0.97790648894418   -0.21564516660164    0.06259624886247
C           2.04844983088292   -0.14836112329982    0.05954530926131
S           2.79746468829309    1.38406328429093    0.05162876816124
C           4.37742072149236    0.63400504657885    0.05043540731633
C           4.27008470772497   -0.75107076511704    0.05612508140759
C           2.94617464582016   -1.18537783764831    0.06127566179800
N           5.42825783484537    1.46187032128863    0.04453717405520
N           6.59767068826176    0.92319135478894    0.04358324775584
C           7.64662488936895    1.76756213889879    0.03772046643277
N           7.73618741949092    3.07512397930373    0.03255338106078
C           9.04989848317607    3.37657223605512    0.02811113248376
C           9.81289526944682    2.23966501480464    0.03051719213642
N           8.92360829066974    1.19474691023260    0.03669943651041
C           9.20097817561244   -0.09940082750723    0.04099316572298
N           9.44565748351683   -1.21739228928984    0.04449702259890
H           5.13658055002488   -1.38728818918614    0.05636823044659
H           2.65154844112099   -2.21965993394856    0.06608760001198
H           9.37764448819247    4.39713014914221    0.02344677187482
H          10.87250690311505    2.08441569721413    0.02847870210261
