25
         -46.235494643482          0.000194380012
C          -1.21272631712850    0.08582291413831    0.02348710950401
N          -0.48123002820490    1.21848533612428    0.00286482890177
C           0.76979621996083    0.84163186075325   -0.02645715517358
N           0.88974438215346   -0.50335219323964   -0.02514777980511
H           1.73510156861751   -1.05078420888153   -0.04382856110613
C          -0.38171712755641   -1.02309515688485    0.00705919471381
C          -0.66231569184603   -2.41868705178076    0.01746454228625
S           0.61126863574333   -3.59806744805887   -0.01178622355298
C          -0.54860899618282   -4.90551920370918    0.01877323994395
C          -1.84601976973944   -4.40938735622468    0.05023101472812
C          -1.90737784922168   -3.02340131609664    0.04942846486466
N          -0.03577410741117   -6.13851419424178    0.00689981899863
N          -0.86440791312807   -7.12796878644754    0.02709050460316
C          -0.32082010419326   -8.36202056266490    0.01351130158100
N           0.93857036511999   -8.77090731101651   -0.01653489929718
C           0.89538539301528  -10.10986400636121   -0.01678650348757
C          -0.40945691486359  -10.55378050132491    0.01350499813901
N          -1.17501934603537   -9.43671614289787    0.03269686198922
H          -2.17963172268289   -9.38109621293135    0.05626136737299
H          -2.28257671275847    0.12000055363845    0.04906483183909
H           1.60739082194875    1.50944698975215   -0.04871384423950
H          -2.69631329521415   -5.06673544997968    0.07237975143274
H          -2.82199184058762   -2.45898179877539    0.07109142226643
H           1.79637409250453  -10.69044733520742   -0.03857757614772
H          -0.82254374230969  -11.54162141768155    0.02215328964482
