26
         -50.278359587644          0.000337359846
C           0.91459071403444   -0.46780118020353   -0.02367156715591
C           0.83228663365494    0.93276853908790   -0.02430837042840
C          -0.45273072830214    1.38376913727927    0.00330596702407
S          -1.59450241126046    0.10574000174621    0.03127678282904
C          -0.31710071101074   -1.08049991789066    0.00464744476099
C          -0.60415524689019   -2.47228919292615    0.01297551771546
S           0.66334470545199   -3.65051284323896   -0.01462525525365
C          -0.50471349486361   -4.95242419711308    0.01293992370349
C          -1.80675506900335   -4.45381835698257    0.04219320641039
C          -1.85743520955608   -3.07231848343050    0.04209979952784
N          -0.01103857195423   -6.18857358389539    0.00144177950290
N          -0.86054633476524   -7.16284845557934    0.02276646538641
C          -0.34257408593559   -8.40326809782350    0.00635335662054
N           0.88812367402364   -8.85411960254182   -0.03634693294243
C           0.81098046905053  -10.20007572769111   -0.03553263408720
C          -0.49206638345492  -10.61663998281196    0.00862712981580
N          -1.24823495340098   -9.47102113615341    0.03568118369359
C          -2.56668879515244   -9.37655658160954    0.08068406953565
N          -3.70819806334745   -9.29994362736240    0.11971783699091
H           1.83514758013231   -1.02281648629695   -0.04305255954288
H           1.68880861011593    1.58203640389368   -0.04434752495316
H          -0.80017531946258    2.39775328533913    0.00928116908628
H          -2.65767103179215   -5.11076061742899    0.06212019322765
H          -2.76632179043964   -2.49632524414314    0.06223353355833
H           1.69928300621275  -10.79932493700688   -0.06690360690254
H          -0.93645719208441  -11.59086911521538    0.02278309187659
