22
         -39.767275179853          0.000747282720
N           0.96719102790623   -0.16589130005666    0.21934080431173
C           2.31919548321984    0.00649982445935    0.14840935762372
S           3.02008645852185    1.58852097961290    0.19363708236704
C           4.64189946915454    0.90062513279373    0.15259607904932
C           4.57638552191196   -0.48316294046594    0.10695248141360
C           3.27878077036420   -0.98507713162923    0.10329767295034
N           5.64650197172019    1.77567266445034    0.15415269789155
N           6.85059603159116    1.30657174774900    0.11795443444983
C           7.85936548481416    2.19963063936095    0.10599119775516
N           7.90765069723343    3.52510472810839    0.12659443035753
C           9.20605604282273    3.84678569962195    0.10677115911085
C           9.99514995637071    2.71408320976053    0.06305452919889
N           9.13110111329620    1.67522217551511    0.06662188295087
N           9.42946260246899    0.32450371052366   -0.03775012788716
H           0.39412871989431    0.64041603927933    0.03393859160960
H           0.60343850813135   -1.04624100640492   -0.10729088054981
H           5.46457692606389   -1.08812495683727    0.07287167099925
H           3.03450397690770   -2.03204510667088    0.07056631896460
H           9.52072036042370    4.87150043151785    0.12198556169282
H          11.05646522338880    2.57867575973264    0.03776522870686
H           9.96397273061661    0.00672432070866    0.77022809833742
H           8.53173092317745   -0.16002462112936   -0.06947827130403
