27
         -49.987851944978          0.000750031727
C           0.81170970088527   -0.36619636050080    0.00928905350615
C           0.46827678356556    1.00027468969000    0.00384800634153
C          -0.89439230843301    1.04540837191361    0.01797020939400
O          -1.41517231409750   -0.19032019860051    0.03176017297023
C          -0.37727684852544   -1.06144040999115    0.02635275628887
C          -0.63964794625670   -2.46460498538642    0.03427607987742
S           0.64799838418761   -3.61851760748548    0.02970133988086
C          -0.49736918340222   -4.94110921916078    0.03992931407722
C          -1.80308464514431   -4.46435711799973    0.04569241901665
C          -1.87993215569792   -3.07917343572826    0.04140128104674
N           0.02471005686849   -6.17236430045941    0.01771947690680
N          -0.79897930837920   -7.16629835027585    0.05755194660284
C          -0.27627958770877   -8.40437055470109    0.02008431122591
N           0.96467588813391   -8.87079802941805   -0.05556026625989
C           0.86048743330387  -10.20128918806452   -0.03581260212291
C          -0.46513456228439  -10.59260275160750    0.04191875890671
N          -1.17600423977780   -9.44733499181736    0.07960770884306
N          -2.55291072293211   -9.30393461054443    0.08322236963278
H           1.79243994717181   -0.79508521182649    0.00127097983628
H           1.13886246446451    1.83448627249299   -0.00924343902642
H          -1.58408000625753    1.86615341309221    0.01939693079933
H          -2.65046702400699   -5.12605147131390    0.04605902056596
H          -2.79739915129175   -2.51811885604860    0.04291405195511
H           1.73126852182522  -10.82473988582968   -0.08092156056737
H          -0.92471575757524  -11.55859145115880    0.07805386416814
H          -2.96405466784856   -9.71017104557103    0.92165698123396
H          -2.73644875078673   -8.30137271369918    0.05314083489998
