28
         -49.752619734744          0.000781041366
C           0.83549060996710   -0.37148580078609   -0.01751888555158
C           0.52320932233699    1.00220157983044   -0.01404510016349
C          -0.83795390847136    1.07800424459219    0.01494039879828
O          -1.38676098650930   -0.14602353570158    0.02893850565778
C          -0.36872449652475   -1.03980318310303    0.00924904459727
C          -0.65256831111114   -2.43890998140125    0.01750316625724
S           0.62685010872260   -3.60257606355079   -0.00914232383630
C          -0.52811297864798   -4.91625573353342    0.01741177028497
C          -1.82963272729352   -4.43057102055408    0.04536505669231
C          -1.89712068543440   -3.04458030871132    0.04523013686025
N          -0.01642242985873   -6.15210379693654    0.00557207262864
N          -0.85033264424791   -7.13720954147572    0.02605627664810
C          -0.31305745326473   -8.37280310635528    0.01090885771897
N           0.95004113613199   -8.77838991723029   -0.02291912789307
C           0.90838817558345  -10.11465851339665   -0.02398714295597
C          -0.39917784339860  -10.55594143634260    0.00998893826555
N          -1.17199123298639   -9.44695507586193    0.03206728040907
C          -2.60372595110934   -9.37680696611401    0.07006972357202
H           1.80549567167527   -0.82434577104047   -0.03701948882520
H           1.21320327666918    1.82075663024828   -0.03062347019266
H          -1.50730214886338    1.91557391466766    0.02731408995666
H          -2.67591740107907   -5.09327006827884    0.06445757493742
H          -2.80999709729159   -2.47635971750080    0.06452158955493
H           1.80810110944710  -10.69726774455307   -0.04869363996120
H          -0.81109024525099  -11.54515736647266    0.01934273324603
H          -3.01574055356502  -10.38446203631618    0.07983213592126
H          -2.97385551627865   -8.83911682714550   -0.80419096121065
H          -2.92706479934696   -8.84102285697643    0.96384078858340
