27
         -49.677390636058          0.000864752552
N           1.10965936483162   -0.22054045448286   -0.63252322864372
C           2.44179636782403   -0.05062808539901   -0.42393587595389
S           3.19722100127750    1.48398336105013   -0.68296468007661
C           4.78017582917655    0.79843862837981   -0.30990873294895
C           4.65806478045579   -0.55142249028653   -0.00119165087506
C           3.35410006680867   -1.02538546372820   -0.05933615224443
N           5.79546578610205    1.65204172553683   -0.34155118347714
N           6.99280618429294    1.19858318267437   -0.15041303122766
C           7.98279872363641    2.11782919097293   -0.12271244583605
N           7.92372802966789    3.43704959657880   -0.16780435474886
C           9.18863610873081    3.87265662702105   -0.07022991989295
C          10.06090020472278    2.81483411751781    0.03592385334195
N           9.29634128463642    1.68831403249749    0.00584211364005
C           9.73717675105948    0.38227275903813    0.07814560123769
C          10.98786782508685   -0.17786751525603    0.20097808330368
N          10.87226752470601   -1.52779808468035    0.22774680189524
C           9.59770585505423   -1.78888932689705    0.12446406498405
N           8.85724896267511   -0.66126365137111    0.02939793060495
H           7.85761951004796   -0.47661132113777   -0.05817971235957
H           0.53575015113513    0.60175313798844   -0.71028683443851
H           0.67505079242935   -1.04265778874796   -0.24749693882944
H           5.50601900063138   -1.15357437338874    0.27410747965325
H           3.06941615499536   -2.04109245601717    0.15136111362662
H           9.41222607997718    4.92098416863206   -0.07925889937013
H          11.12609829014155    2.77729181464753    0.12847627193748
H          11.94482099030312    0.29670296641780    0.27120325768026
H           9.17620837959372   -2.77347429756076    0.11384706901794
