23
         -44.677686372230          0.000651929284
C           1.79676615200709   -1.12184790290028   -0.86865911840357
O           2.46259799860240   -0.18344414491310   -0.04560147280574
C           3.05320780925078   -0.64375098663748    1.06154996356106
S           3.85734749674598    0.51223873755150    2.05922570941785
C           4.31808310308472   -0.76201501007776    3.18282589887698
C           3.84423537586819   -1.99410226854646    2.75243284505726
C           3.13234987197360   -1.92961757354068    1.55966037632913
N           5.02603941112468   -0.39555036918865    4.24992342390272
N           5.36848497597599   -1.32910252633321    5.07428368094037
C           6.08067287696614   -0.94874707967659    6.15086514808073
N           6.51969080532668    0.21307638157424    6.56838350561083
C           7.18021546071268   -0.01099507388409    7.72355650308091
C           7.16255551778284   -1.33943572164828    8.04887777593482
N           6.45754179468525   -1.95859898567263    7.04555350856063
C           6.17995612167726   -3.24588718930540    6.92904063442201
N           5.93942595334699   -4.36060016821210    6.82961605901364
H           1.39466527027019   -0.54869270222130   -1.70126750996612
H           0.98058229288707   -1.60923139816370   -0.32851574867175
H           2.49091594257093   -1.87885996105151   -1.24362200155326
H           4.02842789321453   -2.89289442618511    3.31305423041029
H           2.69437282012626   -2.78699164716180    1.08195557231032
H           7.63421659610750    0.79833625113065    8.26020371524768
H           7.57266845969284   -1.88487623493660    8.87416730064326
