32
         -59.896963311472          0.000950512632
C           0.59136734596301   -0.30600420710700   -1.06087205072343
C           0.20847417216492    1.04817964401212   -1.11395206518377
C          -1.14354104641150    1.06405165613390   -0.93012997779120
O          -1.62106396564612   -0.17801682868313   -0.76918906826240
C          -0.56562930269728   -1.02477594719606   -0.84707654687833
C          -0.78438671214146   -2.42767251543806   -0.71104377305141
S           0.52068055312595   -3.55720860329544   -0.81501535459549
C          -0.58382718011667   -4.89839142881941   -0.59145235964620
C          -1.89018256489274   -4.44105060278433   -0.43113087190627
C          -1.99720766862007   -3.06083421094812   -0.49111747647620
N          -0.03617717291015   -6.11096182325042   -0.52292739749237
N          -0.82068950953468   -7.13648842115071   -0.55875272973945
C          -0.25657544294479   -8.34373005948035   -0.36067299315678
N           0.97787113346071   -8.66531159108258   -0.00946774756131
C           1.00384014632172   -9.99924178524497    0.09238287388592
C          -0.23265432811647  -10.53430467113246   -0.19844362365253
N          -1.04351443352846   -9.48232127320100   -0.48546365262768
C          -2.37579305990184   -9.53578779024210   -0.84270931914742
C          -3.26026611207361  -10.58135247957068   -0.98424651999477
N          -4.46842253306029  -10.09751959301730   -1.35774178069399
C          -4.33468977940668   -8.80212606583693   -1.44417673828465
N          -3.07843096310378   -8.40282576361522   -1.14170456227283
H          -2.63114027256245   -7.48918946810860   -1.09758935530058
H           1.57675599798114   -0.71212540780183   -1.16350185629534
H           0.84683205286560    1.89397220062654   -1.26724454793423
H          -1.85156412668696    1.86851506764903   -0.89516955590461
H          -2.71371147663896   -5.10821399432808   -0.24715919581576
H          -2.91748289814064   -2.51420725969242   -0.38594301371724
H           1.90182490848870  -10.51437640556263    0.37006811820377
H          -0.58052316995550  -11.54585000498319   -0.22028576165433
H          -3.10480807553588  -11.63074961349195   -0.84111069832464
H          -5.11714451573828   -8.12559075334612   -1.72177039800195
