30
         -60.731045961385          0.000885498145
C           0.93473597178981   -0.56806375435768   -0.02436174792842
C           0.58787022792139    0.79639341791003   -0.00801682337272
C          -0.77581409088596    0.83710044364752    0.02807257204963
O          -1.29214212238114   -0.39817819201583    0.03570576145960
C          -0.25314358719778   -1.26757509348552    0.00349763169447
C          -0.51934197705550   -2.66891920727953    0.00313264422412
S           0.75405144568130   -3.83421336463615   -0.03678721868060
C          -0.40816532655697   -5.14212450512065   -0.01353988749267
C          -1.71021910646514   -4.65173113446792    0.02359273602711
C          -1.77003902389160   -3.26911857775516    0.03282148977939
N           0.07030329150471   -6.39138361619266   -0.03416327317195
N          -0.80609234709794   -7.33344023341451   -0.01687156215147
C          -0.33139667718348   -8.59695768270873   -0.03836047565614
N          -1.19987544258373   -9.64253930724338   -0.02431834306132
N          -0.50739608910114  -10.70690831664269   -0.04977995090944
N           0.93230092918342   -9.03831329947135   -0.07497149493754
N           0.77217794788434  -10.34186202557149   -0.08068227867033
C           1.83027111855883  -11.22138178955274   -0.11485720765185
C           3.17638742896415  -10.97283352359494   -0.14643125124228
C           3.78381379111254  -12.24820574861194   -0.17239677745483
C           2.76690095272910  -13.15541423593170   -0.15495780043467
O           1.57519974388829  -12.53762618266768   -0.11960838367519
H           1.91652342282265   -0.99387136921013   -0.05257080023651
H           1.25565648414691    1.63282223067113   -0.02132536856837
H          -1.46671059169175    1.65670712553547    0.05056252001621
H          -2.55400540822052   -5.31746863959295    0.04199396543896
H          -2.67839530683718   -2.69441214373213    0.05982958169538
H           3.64391596736156  -10.01115959919436   -0.14982407072255
H           4.83292250973317  -12.45707495645954   -0.20027525262241
H           2.76014586386755  -14.22680671885219   -0.16402893374356
