25
         -50.490071787400          0.000944972119
C           0.87104152608368   -0.47197216766679   -0.01916225248916
C           0.53245161438663    0.89457764094931   -0.00221339496415
C          -0.83048644938847    0.94341141910584    0.03615919456355
O          -1.35459362186732   -0.28941129825912    0.04379248505682
C          -0.32036012212498   -1.16434687820819    0.01009383397564
C          -0.58729166773706   -2.56610548406956    0.00737483411901
S           0.69252050138616   -3.72409642946291   -0.03373383556676
C          -0.46207055792974   -5.03901066708787   -0.02262761436423
C          -1.76629448660566   -4.55651013310198    0.01500017485287
C          -1.83405852248224   -3.17337900560840    0.03349018877384
N           0.04068270187340   -6.27807491665347   -0.03170785554164
N          -0.79790693547908   -7.25172923896584   -0.05165459461273
C          -0.24443612058026   -8.48889102675456   -0.06099245468343
N           1.05788898642088   -8.83258533265734   -0.14388544770998
N           1.10381956988739  -10.11665695261382   -0.14750409534227
N          -1.02172448500213   -9.58583256295163   -0.01538973478902
N          -0.13762096170146  -10.53735799600481   -0.06314786650179
N          -0.46299841241325  -11.85366563785553    0.03105704832466
H           1.85000059661965   -0.90389832607046   -0.04877338896054
H           1.20565996774405    1.72659533313077   -0.01669715014145
H          -1.51642629058417    1.76688819987361    0.06026423216172
H          -2.60803043501361   -5.22490365720832    0.03124928596481
H          -2.74613680008579   -2.60464769350092    0.06346852999599
H          -1.39732550332285  -12.02344642633261   -0.32137826330011
H           0.25084590791627  -12.42972076202567   -0.39904185882148
