23
         -46.247049713896          0.000364574450
C           0.91572889396227   -0.47101606898158   -0.16953559081628
C           0.83645442158069    0.92946122830539   -0.12248879551644
C          -0.43278836553773    1.37733330782005    0.08462790135290
S          -1.56329618533164    0.09680568485559    0.22606651050948
C          -0.30229644535331   -1.08590594072857    0.00222629106874
C          -0.59202554710109   -2.47830859991493    0.00915028838361
S           0.65507721163683   -3.65825167933033   -0.20815143146316
C          -0.50896652233747   -4.95547543897653   -0.08098051178463
C          -1.79152679086128   -4.45754216819623    0.12519010053718
C          -1.83413588268001   -3.07511354534489    0.17693680940778
N          -0.02583067259831   -6.20118374615054   -0.15702832325087
N          -0.86383816048032   -7.16350912344095   -0.17199149009213
C          -0.39319329415652   -8.42340861338112   -0.06592540395660
N           0.59017920029004   -8.84582107448549    0.78308915053384
N           0.61100372977378  -10.11755972477965    0.71764724153875
N          -0.98214831482108   -9.46788211110332   -0.65299834881722
N          -0.30999347362339  -10.48204129762787   -0.14700527394029
H          -0.50853493141310  -11.44105571677385   -0.39175332337739
H           1.82541851403277   -1.02303747754783   -0.32327922173024
H           1.68420537177586    1.58043066657432   -0.23687609920462
H          -0.77534062490847    2.38995087926117    0.16315410818292
H          -2.63755405856670   -5.11233807891832    0.23170478577350
H          -2.73014807328154   -2.49868136113424    0.32851062666117
