26
         -49.886937596650          0.000887244485
C           0.90113083394495   -0.55379742927400   -0.03096624820304
C           0.65050712367015    0.79108795324446   -0.02922420126650
C          -0.75563169305829    0.89197538265765    0.00308040649893
N          -1.31629992040238   -0.29342405500073    0.01952332081960
N          -0.30915204814242   -1.17703373143803   -0.00109060843250
C          -0.56304348757329   -2.52461941952315    0.00816706947221
S           0.70862695542385   -3.69142953173176   -0.02100079801704
C          -0.46844623442366   -4.99024122489559    0.00988765716769
C          -1.76276645167453   -4.48890834098098    0.04103671491348
C          -1.81729563157240   -3.10197952002883    0.04003506023128
N           0.01231893078440   -6.23964404945440   -0.00113106548890
N          -0.85311806769074   -7.18817432061662    0.02071691197760
C          -0.35625265795704   -8.44654725050599    0.00815815591346
N          -1.19356281219771   -9.51137982306261    0.02771125384379
N          -0.45971810344960  -10.55705555290461    0.00905779764491
N           0.92069282399606   -8.85907519724779   -0.02294657982132
N           0.79694507511695  -10.15797180106639   -0.02089794147889
C           1.90968116728941  -11.05461275140861   -0.04849122754854
H           1.81403525996150   -1.11317313294449   -0.05035883612155
H           1.35977865618576    1.59196465039294   -0.04804873045734
H          -1.36078926032812    1.77622662366055    0.01432881954854
H          -2.61104765588222   -5.14867075538701    0.06293389141441
H          -2.71271328331819   -2.50900044530529    0.06095491919409
H           2.82071072161034  -10.46114881627508   -0.06992899411348
H           1.84994630119390  -11.68697477401870   -0.93468839417939
H           1.89267345849335  -11.68855268688500    0.83843164648850
