26
         -49.906286166728          0.000531379217
C          -1.16493601303332   -0.09280909868629    0.06680211832351
N          -0.44289797931276    1.04470369165717    0.05775040326875
C           0.81108499636359    0.67863084044130    0.00410654393475
N           0.94189539881082   -0.66450781752803   -0.02279442258093
H           1.79240096828742   -1.20292111893817   -0.06364716567635
C          -0.32504754154236   -1.19532820790622    0.01694554297685
C          -0.59661127496573   -2.59182747143342    0.00553915769388
S           0.68082150810683   -3.76150662121194   -0.06594388413484
C          -0.47319105195750   -5.07370479970778   -0.03548990210006
C          -1.77403926475507   -4.58626677892020    0.02570553810726
C          -1.84105920854197   -3.20263069470557    0.04814260101613
N           0.03814563692781   -6.30617414940954   -0.07332299514122
N          -0.78518819806780   -7.29222819314112   -0.04824591505348
C          -0.20362036205166   -8.51760661045386   -0.07516296298965
N           1.11949812671873   -8.82675473006477   -0.07209873193561
N           1.19640811759906  -10.10107098795059   -0.08816502620161
N          -0.94229859845675   -9.63209392179182   -0.09082983300003
N          -0.03428068067437  -10.57357205211646   -0.09990267786494
C          -0.34728692665001  -11.96768588563379   -0.11967908577170
H          -2.23454338582032   -0.06774054900490    0.10777719491104
H           1.64267680087238    1.35395461112694   -0.01636759015366
H          -2.61677622440516   -5.25324671944496    0.05111177645700
H          -2.75670784309932   -2.64170609270372    0.09458297744245
H          -1.42892985317609  -12.07064456845601   -0.07528337456345
H           0.11541922587931  -12.45910756350757    0.73636981638513
H           0.03584362694437  -12.41939451050873   -1.03538010334923
