22
         -44.063863916274          0.000879829935
C           1.54473934042255   -0.56249116206052    0.76737362592995
O           2.43533338992312    0.09321981086195   -0.11316932886157
C           3.06427745633072   -0.65981822583119   -1.02453541038349
S           4.16868556355229    0.14547551054300   -2.07834030523654
C           4.53191661106706   -1.37852412821374   -2.87990072261158
C           3.80569404825490   -2.41564908119083   -2.31773765165482
C           2.97841929326846   -2.01386734441940   -1.27170917703260
N           5.42470287388268   -1.33662664253889   -3.87254630208450
N           5.69969311252246   -2.44157409466616   -4.46783883150404
C           6.61388136734512   -2.34399180383177   -5.46475210122969
N           7.24499695360337   -1.24588416712537   -5.93093044098651
N           8.01047415539229   -1.63535564072951   -6.88771678537104
N           6.99587967039087   -3.43675703004046   -6.14984849432155
N           7.84906584486696   -2.93392344117599   -6.99286597043548
N           8.56420556184572   -3.69651641536490   -7.86322387803616
H           1.15483531485518    0.21341896308941    1.42259690462329
H           2.06458911519142   -1.31947129914456    1.36130591585209
H           0.72160772184404   -1.02992288282881    0.21969123568085
H           3.89863335348676   -3.42390818542778   -2.67882386061628
H           2.34595051604335   -2.68690994539782   -0.72197682904081
H           8.05014824713493   -4.53092836880624   -8.12140763954347
H           8.86537048877561   -3.14086442570045   -8.65502395313614
