21
         -40.032056362417          0.000630772869
N           1.15439582403565   -0.07513836266361   -0.15175523679187
C           2.50170560950006    0.06640406397227   -0.05453393958927
S           3.23884283623411    1.62968990710948   -0.08301042710320
C           4.84249589713083    0.90070528719137   -0.00962146410085
C           4.74347509778869   -0.48401817777156    0.03631161430502
C           3.43841694701943   -0.95228786166177    0.01078941365505
N           5.87336466021863    1.73904398048390   -0.01725552614978
N           7.05810818871788    1.23669302106168    0.04362860081658
C           8.06150631727599    2.14970395196722    0.03082244644253
N           7.97585320560078    3.50557283006827   -0.00262445688373
N           9.17483033140754    3.94814673867548    0.00451032771224
N           9.34172621978491    1.76449214811883    0.05962312049004
N           9.98199070237340    2.90765433027826    0.04065106718923
C          11.40771669084054    3.00789909319291    0.05735488061938
H           0.58150003110947    0.73776778833793   -0.00396985489379
H           0.75588950644405   -0.96443384219056    0.10039345739560
H           5.62421675565745   -1.09863868713590    0.08500361771464
H           3.16476925706098   -1.99208126732740    0.03604286119811
H          11.81418633781812    2.00058581438201    0.10913382937147
H          11.72592912860563    3.58824016974222    0.92379942297651
H          11.75364045537585    3.50682907416904   -0.84853375437393
