26
         -50.251440816472          0.000714155229
C           0.90947793276077   -0.50995791216338   -0.02492506031392
C           0.58811224316315    0.86073702956343   -0.01261611909195
C          -0.77431123572730    0.92673902930161    0.02681261168943
O          -1.31366867858354   -0.29905833606468    0.03907161885572
C          -0.29087550178014   -1.18723606083341    0.00784433306514
C          -0.57704274860306   -2.58511947916722    0.01247773141216
S           0.68532682386125   -3.76221136815888   -0.02636862222018
C          -0.48835278507826   -5.05972721457843    0.00331253112147
C          -1.78510505996515   -4.55789234873646    0.04142874131355
C          -1.83246404038958   -3.17392093719026    0.04639095620431
N          -0.01262748870138   -6.31081727899625   -0.01453374332208
N          -0.88110074843179   -7.25784550990444    0.00805232956700
C          -0.38281443432951   -8.51571677232404   -0.01143111343859
N          -1.21677354941163   -9.58332158443511    0.00840045498298
N          -0.47959194288423  -10.62700861539286   -0.01730244989903
N           0.89516128101243   -8.92423950513504   -0.05094556927388
N           0.77545794277428  -10.22366960378940   -0.05275919305274
C           1.89167521070984  -11.11571085362290   -0.08895573624299
H           1.88280101526436   -0.95471843433354   -0.05392476097715
H           1.27144219084295    1.68443092700540   -0.03038091621447
H          -1.44950717619308    1.75928991586526    0.04812422614895
H          -2.63502886789374   -5.21574536821618    0.06360372992110
H          -2.73570452623088   -2.59117886990107    0.07346122157011
H           2.79948652594950  -10.51790818078375   -0.12359006450137
H           1.82457023806808  -11.75240374369474   -0.97146707961359
H           1.88843737979666  -11.74542892431371    0.80117994231005
