30
         -59.542745589956          0.000254862920
C           0.92914968644831   -0.59191799159232   -0.03512171880261
C           0.67290315732680    0.75189448149642   -0.02504687032477
C          -0.73394995256101    0.84661120466680    0.00665603779125
N          -1.28935054932774   -0.34118153070981    0.01436691182710
N          -0.27833202057823   -1.22035108444273   -0.01070537818882
C          -0.52775857203699   -2.56837885998022   -0.00888559834483
S           0.74651484203792   -3.73290379969621   -0.03724493805841
C          -0.42845928521018   -5.03333571428845   -0.01495569351981
C          -1.72443235682482   -4.53446544451396    0.01233701084874
C          -1.78139899033096   -3.14807976227050    0.01570938151194
N           0.05195702335429   -6.28183409153584   -0.02750786190831
N          -0.81757020446597   -7.22854942123104   -0.00652045707581
C          -0.33043780384800   -8.48790099790730   -0.02516638496418
N          -1.18362400643966   -9.54195173474049    0.00948480171502
N          -0.47599480498896  -10.59857142960516   -0.02331709575954
N           0.93812819109460   -8.91401282244565   -0.08046224595119
N           0.79557849798083  -10.21337857881072   -0.07739320164710
C           1.84085313445609  -11.10131582897555   -0.12542304386691
C           1.75205756924267  -12.46576680577926   -0.13043214166892
C           3.02440620451399  -13.06448397663191   -0.18581903399805
C           4.03445030376922  -12.15323948502904   -0.22110763747356
S           3.46900294422309  -10.53084700165281   -0.18780455122765
H           1.84509983599040   -1.14620147610072   -0.05724373516521
H           1.37890250238890    1.55570813540502   -0.03796164120366
H          -1.34295674628018    1.72809905313872    0.02319302910476
H          -2.57212672864320   -5.19511645970319    0.02873412148904
H          -2.67854494227287   -2.55762944417999    0.03520187412388
H           0.81646276567685  -12.99153985110903   -0.09580489463880
H           3.18073784445955  -14.12756712035425   -0.19900973146629
H           5.08893246084510  -12.33927216142081   -0.26513931315715
