23
         -50.875941795480          0.000642679632
C           0.86712166750566   -0.49862425354449   -0.02838394788995
C           0.63265304529454    0.84758923254252   -0.02674371609414
C          -0.77433985173059    0.96574288199127    0.00590004325851
N          -1.34924182987010   -0.21124967716425    0.02265133564792
N          -0.35236538253145   -1.10825785730841    0.00189884383559
C          -0.61771202360368   -2.45048540219488    0.01105200937315
S           0.64214214395066   -3.62512438962178   -0.01719921116291
C          -0.54778946580263   -4.91589768519341    0.01256916280684
C          -1.84144159237645   -4.40053713164682    0.04300690304522
C          -1.88191295946888   -3.01665618627311    0.04217216279098
N          -0.06355201713708   -6.15413370530541    0.00137654222933
N          -0.89970190777747   -7.13142651662838    0.02071115782043
C          -0.32608434095683   -8.35981498562113    0.00608395117843
N           0.99740315193013   -8.67108072941887   -0.02641971450793
N           1.08150870596313   -9.94645178598873   -0.03002494383635
N          -1.07067020237143   -9.47133008171087    0.02278872546705
N          -0.14485736839210  -10.37288698824323   -0.00072796213395
F          -0.44433755906734  -11.67938460922977    0.00480228412533
H           1.77313500212217   -1.06897152818889   -0.04795217147894
H           1.35096339088653    1.64017176198143   -0.04586858873621
H          -1.36726208020560    1.85810850637953    0.01716543387335
H          -2.69684372376349   -5.05130367179162    0.06426774797667
H          -2.77050480259764   -2.41324519782072    0.06252395241159
