18
         -41.023690736296          0.000387357432
N           1.12951763125324   -0.04814580110068   -0.00531721866327
C           2.47345711765571    0.07861478308116    0.05362417543760
S           3.22786532668024    1.63155721752715    0.06000951839839
C           4.82515931259456    0.88001174117523    0.07837250365936
C           4.70787349870803   -0.50877138482758    0.08109686067436
C           3.40070563546627   -0.95769306062437    0.06677767662241
N           5.86153516093049    1.70061788220653    0.08234799750226
N           7.04701061341229    1.18693102488248    0.10210272424357
C           8.04877547149075    2.09681799679988    0.10588850492361
N           7.95716639122039    3.45477763365838    0.10973854620609
N           9.15279489885621    3.91070471728145    0.11733545993284
N           9.33111641283996    1.71164975718347    0.11010413533645
N           9.91966923249311    2.86414141305539    0.11599774757169
F          11.25960958357620    2.96185406637122    0.12225921257748
H           0.55366802353849    0.76504437089553    0.12340249924324
H           0.71699530570306   -0.95024948621415    0.15963257012011
H           5.58273618279541   -1.13358123865964    0.09247790318758
H           3.11145420078562   -1.99336163269140    0.06376918302617
