23
         -46.727153145198          0.000414097009
C          -1.18194055163094    0.06689062836424    0.02770230418654
N          -0.44116817630914    1.19140298500172    0.00879407033944
C           0.80737859769823    0.80395762075236   -0.02294500906340
N           0.91644363537720   -0.54112000039134   -0.02563939340967
H           1.75848707731699   -1.09378697371981   -0.04705508873710
C          -0.35962041068455   -1.05044672442271    0.00684699463037
C          -0.65556588104341   -2.44138169247346    0.01424617394061
S           0.59914640128000   -3.63577199145984   -0.01788993426200
C          -0.58134126765586   -4.92505364047075    0.01188618299051
C          -1.87396174203107   -4.41077301703453    0.04476596464446
C          -1.91363246813390   -3.02696192225888    0.04602487670306
N          -0.09639819424298   -6.16684679778658   -0.00131890805739
N          -0.94042836827513   -7.13582904182162    0.01988112609261
C          -0.38343793320985   -8.37303057338207    0.00517684641589
N           0.93877528196069   -8.70668592250155   -0.02396426535045
N           0.99915543857726   -9.97652005320664   -0.02671949583452
N          -1.14115704368197   -9.47213537231410    0.02022491022986
N          -0.24260550328490  -10.42758239738640   -0.00081217659750
H          -0.48599297279449  -11.40764785649641    0.00314044452591
H          -2.25145149548633    0.11011492620722    0.05491598050041
H           1.64979609245955    1.46576410685392   -0.04442947586249
H          -2.72961739147673   -5.06136592672757    0.06626987995946
H          -2.81811312472855   -2.44685036332529    0.06909799201538
