23
         -47.071745106131          0.000801971449
C           0.87663589237840   -0.38735898207964   -0.02108567554941
C           0.58016645581148    0.98859083293218   -0.01385819066346
C          -0.78126381915108    1.07910005811661    0.01985683451524
O          -1.34288238642913   -0.13643935799672    0.03496280594489
C          -0.33632370341932   -1.04254854741044    0.00966253495595
C          -0.64031587706147   -2.43596754990022    0.01737163352591
S           0.61374346458132   -3.62106646300055   -0.01396559063480
C          -0.56924090138739   -4.91036735681852    0.01500953117040
C          -1.86407374083437   -4.39913215625513    0.04722339609212
C          -1.90132872709167   -3.01554251426986    0.04849009875219
N          -0.08995583228237   -6.15587507807848    0.00209950833272
N          -0.93782674636145   -7.12111658845699    0.02245086383206
C          -0.38448566626383   -8.36031773120322    0.00720774633322
N           0.93668829414060   -8.69749352242859   -0.02586722368398
N           0.99405263321295   -9.96722202114541   -0.02893673713638
N          -1.14481991300494   -9.45779730460540    0.02502905353741
N          -0.24874282172887  -10.41548303616215    0.00109151532573
H          -0.49320006471234  -11.39527865511775    0.00582329204375
H           1.84171687672783   -0.84979357410410   -0.04510644447115
H           1.27888495081984    1.79914474255006   -0.03154079136805
H          -1.44099256575886    1.92403458500185    0.03613592494861
H          -2.72030270316000   -5.04893387106170    0.06816508234729
H          -2.80054309902539   -2.42622590850586    0.07083083184972
