23
         -51.240749566389          0.000901980106
C           0.87527119717293   -0.45046586295478   -0.02609015948870
C           0.56453888944568    0.92164633758774   -0.01714857744549
C          -0.79853646365735    0.99756615519593    0.01892965407971
O          -1.34720872966688   -0.22244812747857    0.03301297497008
C          -0.33150131989431   -1.11878707437238    0.00557085630903
C          -0.62554558155790   -2.51330073298356    0.01273849604017
S           0.62688386164562   -3.69577097237748   -0.02123965386781
C          -0.55768803435250   -4.98696865820476    0.01027515320150
C          -1.85428936494836   -4.47336753865805    0.04504035794205
C          -1.89002638870738   -3.09227216072654    0.04626087766712
N          -0.07929084204542   -6.22784263505449   -0.00320849691659
N          -0.92291007073591   -7.19978321863488    0.02029496221447
C          -0.35701469980428   -8.43154522758245    0.00591215254473
N           0.96477631202373   -8.75098908116612   -0.02244367743119
N           1.04121307704275  -10.02676737599153   -0.02449055542885
N          -1.10848437183245   -9.53848917516369    0.02172127138069
N          -0.18765540867135  -10.44581286882039    0.00151505073855
F          -0.49503235591623  -11.75093995189383    0.00781548254407
H           1.84523875692260   -0.90268524210895   -0.05198003535859
H           1.25351792065627    1.74035442279965   -0.03497028753583
H          -1.46691437751997    1.83574675637176    0.03703871416538
H          -2.71062304866536   -5.12303798315776    0.06759813379018
H          -2.78723895693391   -2.50020978462487    0.07031730588532
