24
         -51.242417637771          0.000829796646
C          -1.15473271806656   -0.08780207242908    0.02725929528823
N          -0.42591724804647    1.04240832165846    0.00784617748147
C           0.82735463417724    0.66812235234767   -0.02627829652288
N           0.95099786589704   -0.67477561553298   -0.03007937872500
H           1.79911958731534   -1.21825573845896   -0.05322368700636
C          -0.32005390543075   -1.19807230249581    0.00425180802774
C          -0.60279825228703   -2.58992969780971    0.01123818787868
S           0.65947694845689   -3.77208848271957   -0.02427655863036
C          -0.51223634823323   -5.07222399978167    0.00729992159725
C          -1.81180102345461   -4.56571159303614    0.04336747060222
C          -1.86014550253093   -3.18529132805624    0.04539410146738
N          -0.01635903552873   -6.30325142975933   -0.00767833860610
N          -0.84204096192050   -7.29261718964052    0.01511822923023
C          -0.24775327138502   -8.50743127650295   -0.00142033521823
N           1.09911382318482   -8.78651763966379   -0.03258901681258
N           1.22974034616790  -10.03255645406417   -0.03703544431684
N          -0.95233887826695   -9.62926955378004    0.01356322999572
N          -0.01352915916274  -10.56411766623882   -0.00918499863883
C          -0.25695654311294  -11.87339879631397   -0.00519037182097
N          -0.44190383025850  -13.00102047450089   -0.00286422884399
H          -2.22453545414661   -0.05529829885838    0.05626796779147
H           1.66197191313039    1.33966130920271   -0.04870899687399
H          -2.66271245350555   -5.22254891205914    0.06626059382099
H          -2.76764053299250   -2.61020346150663    0.07061266883473
