30
         -60.024614991152          0.000321788715
C           0.94176931086636   -0.65305634039190   -0.01658785595770
C           0.69111356136524    0.69154553477147   -0.01096633647468
C          -0.71594975757532    0.79224818165847    0.00577707573480
N          -1.27637462277562   -0.39290384471436    0.01013006511754
N          -0.26886058473025   -1.27656087325406   -0.00352633623983
C          -0.52389049127878   -2.62293766037537   -0.00349998405805
S           0.74672818681095   -3.79155802230369   -0.01947037521467
C          -0.43246128737322   -5.08868136733928   -0.00981607373908
C          -1.72704758962870   -4.58561082332632    0.00499038877201
C          -1.77939933696188   -3.19913078333839    0.00876644027346
N           0.04276838263396   -6.33936954400485   -0.01758699829311
N          -0.83277267743705   -7.28163056756032   -0.00838829514920
C          -0.35219183476490   -8.54309391450734   -0.02449809718370
N          -1.20678527189021   -9.59542567218428    0.01193274523575
N          -0.50235999462725  -10.65499555497304   -0.02148149421609
N           0.91690988839299   -8.97164639694425   -0.08284316524884
N           0.76803824567298  -10.27705987506292   -0.07933832767321
C           1.83196164242320  -11.14326652954641   -0.13108797025917
C           1.90981063474507  -12.51652374970084   -0.14285890203533
N           3.20952024719544  -12.88279448148667   -0.20153838895964
C           3.90720619161727  -11.78001477394302   -0.22511243483249
N           3.11789111705854  -10.68166499894702   -0.18406800254918
H           3.37157672180703   -9.70579324295829   -0.18931637211928
H           1.85563136562256   -1.21113434686510   -0.02847663253009
H           1.40054973243692    1.49235514799954   -0.01781477997746
H          -1.32108074129104    1.67645093773429    0.01471591134352
H          -2.57695689072408   -5.24357347673773    0.01293747067955
H          -2.67496192178987   -2.60609693031389    0.01980615553408
H           1.11521803821858  -13.23205294046581   -0.11273504488153
H           4.97623973598166  -11.73628309091858   -0.27122438509834
