25
         -49.664708393946          0.000749748182
C           0.92666338266836   -0.62310333730158   -0.05235920116918
C           0.84213069401757    0.77819213545830   -0.04410344331451
C          -0.44181785861049    1.22700788979716    0.01401918578886
S          -1.58077494263145   -0.05453388174759    0.06006161819484
C          -0.30199129605723   -1.23798183084001   -0.00077629772780
C          -0.58779220907683   -2.63118152515240    0.00342145193071
S           0.68160923870374   -3.80755416672646   -0.05842736549324
C          -0.48335854743085   -5.11053027629585   -0.03108938989240
C          -1.78286482686943   -4.61662810142312    0.02923214675630
C          -1.83712896613390   -3.23337416264617    0.05061064329777
N           0.01504981892542   -6.34956743674951   -0.04313021369557
N          -0.82164190531500   -7.32492458809924   -0.06981703428685
C          -0.26036936171819   -8.55824950440198   -0.06965144038529
N           1.04716525805569   -8.89045611346399   -0.11402991918491
N           1.10432001865100  -10.17432380536398   -0.11856638907955
N          -1.02914151348136   -9.66195705659094   -0.05004932236664
N          -0.13532849313547  -10.60559385461684   -0.07374535078924
N          -0.45219106867994  -11.92474303035567    0.00898522262496
H           1.84751852216392   -1.17635213036826   -0.09450148259662
H           1.69741101746757    1.42854477363246   -0.07983559750424
H          -0.79174624437473    2.23994237600246    0.03302695495544
H          -2.63109186122348   -5.27629798325652    0.05979402476811
H          -2.74695219551633   -2.66018787445949    0.09652640595558
H          -1.37728849531297  -12.09940335316582   -0.36592397971133
H           0.27514183491438  -12.49297316186490   -0.40946122707535
