18
         -36.831407857724          0.000903460631
H           1.04354328035202    0.07523267517145   -0.05476055971125
C           2.11426949808308    0.13698473819254   -0.04101694811096
S           2.87174678624941    1.66672555744009   -0.06857648474330
C           4.44575447291970    0.91041842931976   -0.03202794562877
C           4.33337759595191   -0.47092932676727    0.00257998313740
C           3.00664828243278   -0.90183111922715   -0.00141147546376
N           5.50778548411514    1.73264189494691   -0.02765560963059
N           6.66618109182686    1.18640117284880   -0.02753041178155
C           7.71389051650045    2.04850881409741   -0.01775762981711
N           7.70231755781730    3.39650549365885   -0.05067306324810
N           8.92919407775297    3.77861095447833   -0.04089993422969
N           8.97643523314606    1.58529060052446    0.01002881483765
N           9.66173807488340    2.68898501615713    0.00068621879891
N          11.01574035002542    2.71881713949344    0.09731940051425
H           5.19820891778733   -1.10823188586308    0.03288002679197
H           2.70909895508107   -1.93508830022315    0.02280502414327
H          11.43043732202422    1.88149374578104   -0.29459630013067
H          11.38231250305087    3.58248439997043   -0.28568310572768
