19
         -36.592102456972          0.000976714748
H           1.13651728180979    0.06361333596460    0.11129176246582
C           2.20743764423612    0.12323474763885    0.10011117380215
S           2.96727080373325    1.65124948556241    0.11890955127385
C           4.54039414980377    0.89156833618619    0.08830239028111
C           4.42504163822870   -0.49036887074674    0.06452266269075
C           3.09785321599406   -0.91822382730116    0.07151696314057
N           5.60222686769478    1.71216317112586    0.09406403114577
N           6.76214361957080    1.17015767403114    0.07517393027429
C           7.80262613987356    2.04320237919309    0.08534640512978
N           7.76955382262307    3.40090664598937    0.11005602137125
N           8.98329299014456    3.79570990657797    0.11246980491836
N           9.06703606776045    1.60863072577340    0.07285162928768
N           9.75025876173263    2.72317927799450    0.09056621150046
C          11.17837240252573    2.77091103591159    0.08926442746398
H           5.28950165470587   -1.12868816332621    0.04356873147550
H           2.79755159798234   -1.95087419046781    0.05654802621819
H          11.54990331347384    1.75016621485086    0.03855365888690
H          11.53163866055749    3.25510227513965    1.00031422930020
H          11.52544936754918    3.34315983990246   -0.77132161062662
