20
         -44.815100346611          0.000890696928
C           1.59060238991631   -0.49895001553696   -0.85325521080819
O           2.56092405671053   -0.02045517432425    0.05979155737005
C           3.16359231609851   -0.91234590218878    0.84729291165653
S           4.32306046137996   -0.31174963206779    1.97188810059102
C           4.61138732163787   -1.94659289998963    2.56315544652792
C           3.82039152727804   -2.86364017037694    1.88072182063892
C           3.00677655901288   -2.28606302768453    0.91624024835138
N           5.50485289267284   -2.08510509585593    3.53816087980094
N           5.71855139431723   -3.27178200913358    3.98913142718399
C           6.63171586803890   -3.34321762321110    4.98825892166701
N           7.31743775456175   -2.33115350667871    5.58419719180878
N           8.05941602641412   -2.85920738862413    6.48178261627921
N           6.96187642656615   -4.52018185959110    5.53364504711364
N           7.82266358379845   -4.13425981001987    6.41820188388989
F           8.43284239658497   -5.01453101825665    7.22647954111634
H           1.22004246836475    0.38068899193367   -1.37529190475921
H           0.76682821798948   -0.99052202226016   -0.32906697372117
H           2.03508871651050   -1.19316160678899   -1.57127410090064
H           3.86453222032500   -3.91358477736392    2.10761429802716
H           2.33164740182180   -2.84400545198066    0.29342629816643
