27
         -53.966801610043          0.000579650354
C           2.74084323161313    0.01470648099876   -1.56126722329606
O           3.17285544183229    0.11853588362980   -0.22117450452734
C           3.46146620302888    1.33140374294703    0.23859836170551
S           3.35131277406464    2.76861654915590   -0.71739050346992
C           3.87211468736833    3.73969777776456    0.65183378086732
C           4.10980525751783    2.93717812576200    1.76055267177881
C           3.88231793231167    1.58826678462862    1.53134000226496
N           3.95428928549558    5.05149037664949    0.44346003927319
N           4.32445795107485    5.79338392427079    1.42678018771561
C           4.31579160022034    7.12389050383145    1.17680795262265
N           3.74217624428749    7.78112059373825    0.13246960761134
N           3.90968542133634    9.02651893263245    0.33679079185768
N           4.84498848825933    7.99170635489536    2.04258642029655
N           4.57408610382070    9.15134441233698    1.47552192157027
C           4.94210461017901   10.34743445831343    2.04177733114447
C           4.79275914034086   11.65360517205319    1.64028967608439
N           5.33693379082681   12.46656120182885    2.57441162989480
C           5.80446707492282   11.69271881649357    3.51502207107531
N           5.59150405048666   10.38371678096451    3.24415847994655
H           5.83850179784383    9.56613983949251    3.77973159132057
H           2.55504807576293   -1.04220296727923   -1.73863617681740
H           3.50986454755068    0.38096891615779   -2.24750892634019
H           1.82320391329125    0.58864404414570   -1.71956606872951
H           4.44037138223416    3.36051885990862    2.69169185659674
H           4.00739620563083    0.80753829388905    2.25828299657576
H           4.33341544796451   12.03281080116342    0.75194098376503
H           6.29852934073484   12.03805533962826    4.40014504921034
