19
         -41.370535113597          0.000688898592
N           1.20775032376564   -0.02022212375170   -0.09652998058043
C           2.54712230476629    0.12407605132121   -0.07136508625626
S           3.28090310748421    1.68602217204917   -0.06569378027384
C           4.88902288277517    0.95401377699663   -0.05602748742158
C           4.78852957641243   -0.43727252793903   -0.05644633906155
C           3.48817348090441   -0.90193635656591   -0.06500322232094
N           5.91357462854446    1.78639777296356   -0.05150633192814
N           7.10828730270419    1.28985114300616   -0.04287366800635
C           8.09182744811920    2.21496629821140   -0.03828117164396
N           7.96539779301682    3.58657792416382   -0.03506692386679
N           9.11872114575410    4.07647974542786   -0.02979716729363
N           9.37137412746720    1.86946358564085   -0.03461996214561
N           9.99167918345773    3.04345637086620   -0.02955207712352
C          11.31361524942994    3.19042376586350   -0.02459144726107
N          12.44726966226847    3.33825929062220   -0.02064613784568
H           0.61092293563680    0.78520374783067   -0.05027080249315
H           0.79980133990186   -0.93610925444293   -0.03953501438209
H           5.67132045668594   -1.05107455883106   -0.05084155226425
H           3.21109705090519   -1.94086682343260   -0.06769184783118
