24
         -51.587271548816          0.000696584493
C           0.89051532093295   -0.49622257227853   -0.03344017066461
C           0.56684554352102    0.87253917583458   -0.02370914524440
C          -0.79712243506997    0.93559930769186    0.01480196509328
O          -1.33412895339005   -0.28929517791002    0.02947202349670
C          -0.31029873401563   -1.17605240668044    0.00018242313493
C          -0.59002839279752   -2.57292022406278    0.00739141227336
S           0.67676475485582   -3.74011464130630   -0.02963864290963
C          -0.49234501573414   -5.04524148477261    0.00333386860207
C          -1.79596004212600   -4.54739854725626    0.04098985704162
C          -1.84775909015242   -3.16732059919680    0.04299549785027
N           0.00016166570830   -6.27917833499883   -0.01251476727742
N          -0.83124649154630   -7.26349471098052    0.01161949564657
C          -0.24667195148337   -8.48305278026195   -0.00537453204578
N           1.09706585575443   -8.77602340415232   -0.03432243252218
N           1.21496773942513  -10.02352007319528   -0.03933652704627
N          -0.96288901308374   -9.59811947814845    0.00785194789256
N          -0.03318812407474  -10.54228177940299   -0.01398965719072
C          -0.29029086179117  -11.84892244456020   -0.01110403837172
N          -0.48674730310843  -12.97450673407650   -0.00932766466704
H           1.86496681632896   -0.93867155327234   -0.06110577499930
H           1.24844068342135    1.69739046596501   -0.04260768190717
H          -1.47320376899486    1.76756475729811    0.03418512522517
H          -2.64477333850097   -5.20693374270806    0.06474584439097
H          -2.75213486407895   -2.58624301757010    0.06906157419949
