23
         -43.829125209929          0.000773942054
C           1.23415838115852    0.14719519327603   -0.42436328334220
O           2.40704654356818   -0.06169846220472    0.33249403642243
C           2.96231004812956    1.00173921037325    0.90799964728080
S           2.32943421591640    2.60567255838178    0.76418736836205
C           3.62557809762704    3.22626580043878    1.77383561958856
C           4.47271315000339    2.20201340711014    2.17005619881757
C           4.10450130124904    0.95416259739449    1.68422339714773
N           3.63032427459596    4.54555793138641    1.97971982944081
N           4.51163485333911    5.02528015010049    2.77255156138521
C           4.60863938978351    6.37245050694565    2.84074736997355
N           4.44530365710270    7.25091069953968    1.81637871190102
N           4.79129741208300    8.39909220461275    2.26340367911426
N           5.06624654218033    7.00193420136120    3.92758794763372
N           5.14385801509153    8.24763884755111    3.51868766446963
C           5.57653656473990    9.32070383528395    4.35811889513066
H           0.94187488360375   -0.82872992661250   -0.80585167870865
H           1.42373093500248    0.83344948370234   -1.25500511050026
H           0.43651934210519    0.56000481313696    0.20025471905162
H           5.32703187535683    2.39584157703121    2.79316837291814
H           4.63016729876320    0.03718976725289    1.87519862094820
H           6.07634476063315    8.89460894091992    5.22497089048089
H           4.71825425401664    9.91207365173921    4.68260523495693
H           6.25721420395060    9.96049301127893    3.79821030752733
