17
         -37.927493664955          0.000309234699
H           1.04891355027568   -0.02888065428427   -0.06652685280870
C           2.11981540372478    0.03678502540089   -0.07047185435898
S           2.87119023603325    1.56404146663421   -0.07558014122349
C           4.44881576921169    0.80742514354620   -0.07997148422505
C           4.33662373132652   -0.57921381057667   -0.07738810682955
C           3.01313312930774   -1.00716198367825   -0.07203489837812
N           5.50526330053215    1.62508643685715   -0.08521090528402
N           6.67089130997684    1.08857275784317   -0.08822357404713
C           7.70039624744854    1.96914201018564   -0.09337085267796
N           7.64501818497792    3.34250760364652   -0.09459620902452
N           8.82280728428277    3.77064987903462   -0.09960675103138
N           8.95934203063069    1.55707785137020   -0.09780160211701
N           9.63873015609983    2.69309043758004   -0.10160908257331
C          10.96939107858112    2.76746969554564   -0.10693216473177
N          12.10895774929544    2.84822528866919   -0.11123393920283
H           5.20318065143312   -1.21514382362613   -0.07951084116018
H           2.71224018686195   -2.03948332414817   -0.06937074032601
