26
         -49.426050746299          0.000407099564
C           0.94915552631426   -0.64713654738129   -0.03268607801256
C           0.87866965782103    0.75476589884591   -0.01779096229234
C          -0.40132740649330    1.21604453786259    0.03293142983977
S          -1.55315334716841   -0.05360771332920    0.06383781720230
C          -0.28619301334612   -1.24975512592672    0.00710015460635
C          -0.58892320759572   -2.63954036528406    0.00561808246386
S           0.66358279966244   -3.83383228390434   -0.05345501856944
C          -0.51963322865731   -5.12017667329401   -0.02104456933140
C          -1.81193085794679   -4.60793846477166    0.03315978698197
C          -1.84677063090712   -3.22423943270970    0.04783175610093
N          -0.04913049227340   -6.37207832146310   -0.05174622482523
N          -0.91822392136252   -7.31889492713855   -0.02913511850834
C          -0.41612645277518   -8.57511098686971   -0.06035942030029
N          -1.24380455694514   -9.64714740924723   -0.04729438520872
N          -0.50049389796115  -10.68653010335241   -0.08229821679888
N           0.86436271034038   -8.97583311448641   -0.10568287597859
N           0.75192914160801  -10.27569120827891   -0.11727052513835
C           1.87325133289558  -11.16092068082327   -0.16161788805849
H           1.86481629170340   -1.20925875570018   -0.07099896106031
H           1.74046121405739    1.39690878941866   -0.04358252158433
H          -0.74119022559496    2.23240011757776    0.05417064288675
H          -2.66816901156012   -5.25730140130613    0.05939462854018
H          -2.74851441533031   -2.63820425402321    0.08776445765857
H           2.77685238544394  -10.55766404797770   -0.20999622316743
H           1.79935176550372  -11.80279474281589   -1.03971830235076
H           1.88496184056741  -11.78569278362125    0.73200853490475
