27
         -54.305251046240          0.000492253902
C           1.93747720739004   -0.82148688506277    0.88423290068560
O           2.93622346401526   -0.11770543244803    0.17177868056234
C           3.35218285705809   -0.64353837501845   -0.98586102943649
S           4.55629544126011    0.23286883666487   -1.85750986107113
C           4.54659158501499   -0.99172741509501   -3.12264045038118
C           3.64077629246292   -1.99838338799169   -2.82646877988214
C           2.96826449880409   -1.80595844210961   -1.62336986857247
N           5.38173027332716   -0.80808230688343   -4.14802651356904
N           5.36927056828339   -1.69232264718865   -5.08153314710088
C           6.21779521669916   -1.46456697392995   -6.11049098614704
N           6.36290336774948   -2.38574045202268   -7.09752944162874
N           7.19360497144373   -1.91144479692577   -7.93502464316107
N           6.98156290652386   -0.39281155506806   -6.35289151117762
N           7.56125668140161   -0.71412351873907   -7.48736627377253
C           8.45402866097640    0.12052378224118   -8.12040617715163
C           8.90317489827080    1.35898436426422   -7.74782161725230
C           9.80516754834697    1.74296552739394   -8.76553341248123
C           9.82825190070113    0.71642647241498   -9.66144133162066
O           9.00841470386908   -0.27511139910209   -9.27505388881877
H           1.73584047538302   -0.22613341526508    1.77209480398802
H           2.28953182791510   -1.81411655381155    1.17825175150247
H           1.02467187139675   -0.91840368756452    0.29010385046928
H           3.50142876912135   -2.83585990770357   -3.48598634867901
H           2.23362895051552   -2.48860594381276   -1.23675508428891
H           8.61824902100761    1.89913524809896   -6.87001307038109
H          10.35834685968521    2.65739540166221   -8.81883443171260
H          10.36569918137747    0.57451346300123  -10.57744411892115
