23
         -46.248433214700          0.000700681469
H           1.08046225877997    0.23990204923522    0.07013860728754
C           2.15304315969098    0.23774097228837    0.07104309187947
S           2.99909602724101    1.72002561830342    0.06872487667368
C           4.52657633099597    0.87073957792347    0.06950090308713
C           4.33226051445068   -0.50233856469702    0.07271166661653
C           2.98265565733751   -0.85299555549728    0.07370563665246
N           5.63589324235761    1.62663186041159    0.06705188834717
N           6.75847879171749    1.00777357647288    0.05874617057564
C           7.86048117499243    1.79333934088189    0.05328423952609
N           9.09630727490848    1.23774092201879    0.04596774716594
N           9.93696968447112    2.19373018158645    0.03790471662138
N           7.94696074288040    3.12953614556300    0.05078921511394
N           9.23848673402359    3.32454855318406    0.04117306745952
C           9.82534374369220    4.56534587201062    0.03441804952007
C          11.16561732381274    4.83441971646786    0.01302917670595
C          11.41250663730385    6.21996666265479    0.01275770724974
C          10.26989357015077    6.95888599298584    0.03359270696158
S           8.85062196023465    5.99040363918812    0.05429583560674
H           5.15831406932110   -1.18979556652899    0.07456889898373
H           2.62383330289301   -1.86679092108976    0.07579461560816
H          11.91686218828914    4.06736462308973   -0.00158956672098
H          12.39805571918323    6.64802887276375   -0.00254590818163
H          10.17529989127195    8.02642643078340    0.03818665726003
