30
         -59.081897718085          0.000849001596
C           0.95415173959457   -0.64868548953856   -0.04215019689792
C           0.86324177352092    0.75179448932920   -0.01930811592216
C          -0.42306620716421    1.19401807037457    0.04474252768574
S          -1.55569965315049   -0.09218123062731    0.07900143093798
C          -0.27211940713225   -1.26959682618145    0.00494354418514
C          -0.55656197546081   -2.66297279815821   -0.00300109819780
S           0.70700866530621   -3.84352167010848   -0.08321631317816
C          -0.46311782466771   -5.14213044401713   -0.05229540133572
C          -1.76070186018457   -4.64259839266804    0.01899842178495
C          -1.80903859163304   -3.26051423815527    0.04661428399450
N           0.01358052758284   -6.39013776773599   -0.09592340774266
N          -0.85694262357970   -7.33827943178140   -0.08355386527605
C          -0.36337726644312   -8.59451245178551   -0.12517944823906
N          -1.20833567788818   -9.65637223603182   -0.11601262655338
N          -0.49159526797349  -10.70651631463672   -0.16147575688492
N           0.90876738914606   -9.00935120084968   -0.17837721752017
N           0.77744141343463  -10.30999726018411   -0.19901955444569
C           1.83084381985153  -11.18779576444107   -0.25302887856327
C           1.75444601022163  -12.55281701824340   -0.27463583582626
C           3.03236145277042  -13.13968529691351   -0.33117178585352
C           4.03423545756362  -12.21917628264694   -0.35083457314812
S           3.45392551560026  -10.60222239757419   -0.30109236483959
H           1.87738007078409   -1.19741754747905   -0.09120970465383
H           1.71508968960498    1.40687129527290   -0.04920269521869
H          -0.77774898484514    2.20511507847091    0.07409114983767
H          -2.60909458843505   -5.30203666021903    0.04788042183918
H          -2.71551556121615   -2.68299812381451    0.10037289218635
H           0.82286844602009  -13.08618800873562   -0.25056606275681
H           3.19784723343680  -14.20116779329316   -0.35599919529192
H           5.09060628533530  -12.39500628762739   -0.39199057410577
