23
         -46.730377525976          0.000723528740
H           1.16481008189665    0.22463680577166    0.04856012049657
C           2.23732990020557    0.23400962464319    0.04987979631961
S           3.06760141409125    1.72486241097985    0.04989036703798
C           4.60428770912584    0.89219795603993    0.05189594318155
C           4.42418133094926   -0.48307209662804    0.05267568977257
C           3.07847015078950   -0.84781748544384    0.05176379854611
N           5.71010361161137    1.65495662203909    0.05285090886047
N           6.83245804341241    1.03439490105733    0.05346687105983
C           7.94083643820981    1.80903271177246    0.05255981384264
N           9.16993528029650    1.23822636606108    0.06109675961667
N          10.02432281467748    2.18184714233870    0.05539516586982
N           8.04438248040870    3.14559582523903    0.04224727047695
N           9.34560675474233    3.32202613596688    0.04455338225759
C           9.92724075258865    4.56603195822535    0.03634769591073
C          11.24184838564124    4.97115484259771    0.03470173831165
N          11.28565504958823    6.32180274447076    0.02315272922327
C          10.04767710628013    6.73523075849898    0.02118699704583
N           9.17047020061384    5.70463620041201    0.02766705615929
H           8.16216763741964    5.71865503345658    0.02653982043748
H           5.25811254674599   -1.16078408555732    0.05426618299488
H           2.73027689754301   -1.86520970665588    0.05222675882438
H          12.12684952730251    4.37003699647744    0.03973877725982
H           9.74916588586022    7.76377833823700    0.01377635649435
