24
         -50.761956396659          0.000877681905
C           0.93265162146096   -0.63168914527610   -0.03405806961768
C           0.85693731930482    0.76830180571816   -0.02634644225348
C          -0.42657269539776    1.22496394508217    0.01845812994518
S          -1.57401515602279   -0.04557997815494    0.05248630034228
C          -0.30280882659445   -1.23842378342154    0.00528003341690
C          -0.59664795632220   -2.62782046014514    0.00983420272419
S           0.66098760297431   -3.81196415730298   -0.03961852269912
C          -0.51706944184713   -5.10655093677390   -0.00275545250243
C          -1.81671837442118   -4.59839181577997    0.04521028986962
C          -1.85676788326940   -3.21871186191251    0.05180255089030
N          -0.03290493836522   -6.34295295915554   -0.02561242101512
N          -0.87148220408999   -7.32198345929007    0.00196103825066
C          -0.29602016946073   -8.54514081148944   -0.01972787980269
N           1.04557594567302   -8.84829031991569   -0.04856553358565
N           1.15395236500061  -10.09675310081172   -0.05628985646886
N          -1.02073346748574   -9.65495439403363   -0.00869003577385
N          -0.09810575768607  -10.60597237088054   -0.03179613827027
C          -0.36533090596525  -11.91070838331939   -0.03113996340960
N          -0.57046959147315  -13.03490220893941   -0.03105645709066
H           1.85051543883078   -1.19055832633951   -0.06690509114790
H           1.71581686550288    1.41399337788005   -0.05286115606637
H          -0.76793324243911    2.24097877827081    0.03355708078511
H          -2.67070140188257   -5.25095005798359    0.07251980848609
H          -2.76013514602447   -2.63489937602477    0.08590358499337
