25
         -50.125797955782          0.000262857348
C           0.86749763671280   -0.51604518933497   -0.05463453739147
C           0.60961043709420    0.82762343869955   -0.06056206383292
C          -0.79698141452907    0.92063903320312   -0.02981866945853
N          -1.35105866998302   -0.26813603138774   -0.00731750688504
N          -0.33884343029301   -1.14556968007586   -0.02231107102968
C          -0.58045949547170   -2.49552359220268   -0.00717697664531
S           0.70598267865313   -3.64644056327481   -0.02598511979645
C          -0.45477858198162   -4.95976768562139    0.00092730323963
C          -1.75546461119816   -4.47488922408122    0.02587009145944
C          -1.82735822877733   -3.08807392594274    0.02257892383148
N           0.05623884538266   -6.19466981587450    0.00857360608357
N          -0.77074723008407   -7.17698714069819    0.00415822952103
C          -0.20126652821723   -8.40697709589736    0.01458074927894
N           1.10724618559149   -8.73339456695529   -0.02934001556276
N           1.17022519048891  -10.01683418750056   -0.01975602021241
N          -0.96506148661203   -9.51380620849216    0.04936043866756
N          -0.06768714617215  -10.45346967076674    0.03373459865111
N          -0.37680006878296  -11.77226856051514    0.13293612619458
H           1.78418297955501   -1.06931749202090   -0.07031052658426
H           1.31517896343838    1.63161294913246   -0.08344942036801
H          -1.40696765130630    1.80158745146060   -0.02352872525358
H          -2.59787416931110   -5.14210535148625    0.04847811952011
H          -2.73140689403990   -2.50804605208716    0.03956556517755
H          -1.29701507148645  -11.96236685194837   -0.24659680569319
H           0.36092776132960  -12.34304398633168   -0.26314629291138
