23
         -47.072279698161          0.000268155820
H           1.28991118364229    0.41690714862898   -0.12907987040071
C           2.36179552246796    0.39971313742051   -0.09248009809141
S           3.23301414948632    1.86058960848538   -0.22721842098778
C           4.74461857944350    0.99656078604217   -0.07268780258542
C           4.52614553804138   -0.36558488435123    0.07097104985975
C           3.17165031617636   -0.69600761991086    0.05634379064670
N           5.86625929530991    1.73098452605137   -0.13172453842048
N           6.97794476728120    1.11085283844132    0.01134116126591
C           8.08910821229459    1.88316971306506   -0.02867257603397
N           9.32304356544345    1.32008113915121   -0.06357969296360
N          10.16864841920484    2.26904490952751   -0.05907961410661
N           8.18231626796745    3.21765487965996    0.00373077978805
N           9.48114088395300    3.40684893621368   -0.01307679854225
C          10.04088379585076    4.66410338190414    0.01098176327930
C           9.42852985102423    5.88842769068758    0.04668112764836
C          10.48502856002799    6.82615717011465    0.05030258736986
C          11.63850057851332    6.10062804834355    0.01711590749771
O          11.37575188258447    4.78396274149394   -0.00729619750142
H           5.34045230216128   -1.05956697691529    0.17288808326194
H           2.79500633594478   -1.69872442772579    0.15212859299653
H           8.37485699998258    6.07013740453306    0.06620780839676
H          10.39430604598961    7.89207630147178    0.07389988079504
H          12.66953694720878    6.39204354766678    0.00659307682768
