34
         -69.703830399197          0.000842763588
C          -4.46476728674463   -0.82226160933393    0.05569713113113
C          -5.55020942056683    0.00621910698772    0.05933991056551
C          -6.66710232319002   -0.86027732071473    0.05239428169592
N          -6.29281617759615   -2.11456395625220    0.04528436459073
N          -4.95444242657509   -2.09680237362612    0.04719592030148
C          -4.22814587646565   -3.24780261911333    0.04154434542717
S          -4.97909445919307   -4.81318825967636    0.03030866516217
C          -3.30284107786381   -5.42769362234741    0.03090684222066
N          -2.42224726461049   -4.47061750932559    0.03852233089661
N          -2.92235545843954   -3.26815698042201    0.04424017110400
N          -3.15826817620671   -6.75762741191422    0.02302736983363
N          -1.96660524590956   -7.23411983383814    0.02586425770130
C          -1.85885125283634   -8.57667155775799    0.02150926335648
N          -2.84572275481565   -9.47122395735217    0.02867488839134
C          -0.59704417552120   -9.26448473411356    0.01349571798669
C           0.76854780145867   -8.99502487908918    0.00485622123875
N           1.63256661141661   -9.99096074697093   -0.00017405690249
C           1.17620478057327  -11.23906598862370    0.00270042801305
N          -0.08111199604264  -11.63765780611194    0.01080105445024
C          -0.94995153008206  -10.63541020794953    0.01609194813990
N          -2.31902555405432  -10.68689518149677    0.02589167808631
C          -3.11832540262564  -11.80598396433179    0.03371802138851
C          -2.72729097332887  -13.11723462009158    0.02868454796536
C          -3.83484285817411  -13.98567438592651    0.03964689360839
C          -5.02501934671201  -13.32590443034493    0.05268280908452
S          -4.83929552905374  -11.61775645561296    0.05180674418205
H          -3.40998698710340   -0.64422095720846    0.05822162566574
H          -5.55998272400924    1.07607841044440    0.06591630760838
H          -7.70794597670336   -0.60605159531744    0.05260647099586
H           1.16541031600560   -7.98974077999888    0.00200982797609
H           1.92350094966271  -12.02069538242513   -0.00091381341015
H          -1.69767431415191  -13.42239429803570    0.01766921198116
H          -3.74843007836763  -15.05687519435539    0.03789534118382
H          -6.01125381217317  -13.74506889775351    0.06280327837968
