36
         -74.004813138395          0.000659871959
C           0.57223480471468   -0.89416875673906   -0.73227960085233
N           0.64828175873909    0.40147700120035   -0.36777872471689
C          -0.14548715558000    0.53605110832417    0.66384469716841
N          -0.74483666814133   -0.62542626043524    0.99453786672793
H          -1.39629599282339   -0.81520535423152    1.73892605844634
C          -0.29705761850819   -1.57060373434734    0.10458926408774
C          -0.73204453410646   -2.92240051516327    0.15545349358902
S          -0.22643679868497   -4.14734660774087   -0.99315449389992
C          -1.31189524319813   -5.22880119662768   -0.08158781776263
N          -1.87784745001211   -4.62708430855680    0.93328084645518
N          -1.54922814990773   -3.37424395323335    1.06463690027757
N          -1.25920069996212   -6.52602645465045   -0.33467534060387
N          -2.25106898321590   -7.30290525184630   -0.20425699621823
C          -2.03706706183959   -8.63064657971811   -0.19147334184644
N          -0.88342667322061   -9.24488273768877    0.06994997410021
C          -3.08064875034860   -9.60385691423973   -0.34116531559843
C          -4.44694322557149   -9.67853317050650   -0.60459664124473
N          -5.04541899557254  -10.84391878482435   -0.66412702087473
C          -4.31732757914839  -11.96345012190020   -0.47301535654466
N          -4.98494740929310  -13.12432285817823   -0.55512452587219
H          -4.49036062387917  -13.98529102406832   -0.41311327330787
H          -5.97041045010724  -13.10773816089044   -0.74035359035874
N          -3.00892846218950  -12.02878831762745   -0.21388278642218
C          -2.42877272561952  -10.84426729042981   -0.15399010058768
N          -1.11191342836155  -10.55852777840365    0.10163186146071
C          -0.09025315913401  -11.43531027064266    0.39011527359983
C           1.23962876866191  -11.18386365421911    0.60511819104750
C           1.81858428486682  -12.44796917503977    0.85628815399334
C           0.80551289191629  -13.35462225222474    0.77410016845654
O          -0.36044557943338  -12.74494089610126    0.49055963356497
H           1.13284450799254   -1.27925755502759   -1.56015476678268
H          -0.30642802964651    1.45589748220340    1.18983948286777
H          -5.05996578523152   -8.80229498097414   -0.76255783592145
H           1.71335492589724  -10.22591821674932    0.58170035895665
H           2.84799831117341  -12.64993611558398    1.06773136118601
H           0.78186697878315  -14.41917634311823    0.89120394342848
