29
         -59.862174218839          0.000304715556
C          -1.12791094947331   -0.39316477375114   -0.20605728639269
C          -0.38702576449657    0.79259142734914   -0.09085162316403
C           0.92027571416422    0.56757014838107    0.22127855726164
S           1.27790696155288   -1.10073406322546    0.38302779753542
C          -0.36849426932365   -1.51720737178394    0.02341846846097
C          -0.82137833489309   -2.86414658761746   -0.01450515644849
S           0.18866294890529   -4.25159743538377    0.37808878168484
C          -1.27503806262509   -5.21009749730706    0.08908080653747
N          -2.29114094461920   -4.47246080991485   -0.28183742389024
N          -2.03599460514088   -3.20064977281861   -0.34472438272418
N          -1.16087556416246   -6.53187749630192    0.03385846180211
N          -2.12159231556301   -7.30423973029093    0.32011237903810
C          -1.96233491975553   -8.62907502839446    0.09547412615613
N          -0.81879617046706   -9.27203024902653   -0.12552980888948
C          -3.04537059641123   -9.56725194303873    0.14473289714831
C          -4.42973898387580   -9.60398955552626    0.30368837075263
N          -5.06685287056535  -10.74883978851562    0.25952387279217
C          -4.36615358048502  -11.88357789899828    0.05109230661048
N          -5.08277049884401  -13.01897939027669    0.03239027200844
H          -4.62276921958291  -13.88807788564258   -0.16493127647053
H          -6.08070885966893  -12.96242734043251    0.11517730260103
N          -3.04736237829296  -11.98690279562530   -0.12914931979509
C          -2.42305787239759  -10.82075257463197   -0.07795413533997
N          -1.09788399936691  -10.57066917157575   -0.21880129699197
H          -0.35340785066865  -11.23868266613039   -0.34663556041174
H          -2.17347953610350   -0.44891540102609   -0.44471291601755
H          -0.80266775999508    1.77383276982976   -0.23279452338307
H           1.70041133267266    1.28823213062832    0.36693963397514
H          -5.02373105051754   -8.71562924895246    0.46662067555429
