31
         -60.136783018354          0.000934906932
N           1.76148226594394   -0.19426588806717    1.10044244597644
C           3.07912885058702   -0.15882644585039    0.83000145894796
S           4.14109305917330    1.08287887823109    1.47819704614392
C           5.44782179269783    0.14625309178657    0.67738201192670
N           4.99051075551484   -0.88627043122646    0.04377911216753
N           3.69278125244701   -1.05272245768801    0.11139023176304
N           6.66044753847576    0.69581944840796    0.67121538076658
N           7.69636286923655   -0.03094518599561    0.48338876791555
C           8.85708829177702    0.63584311431127    0.31735251301063
N           9.98902389110293   -0.05306920593962    0.23457987489338
C           9.13383011743916    2.04852253798423    0.17249777120088
C           8.37251800406738    3.21221332913854    0.17229674070542
C           9.03394732084817    4.40985513799752    0.00240849971923
C          10.42044259275973    4.46085547899948   -0.16918680031260
C          11.19522127357159    3.31983364557338   -0.17548691308601
C          10.53193743772310    2.11189161780490   -0.00011855677923
N          10.98282596553189    0.80779359000718    0.05010118851102
C          12.27027372688909    0.33333160477354   -0.05426879093212
C          12.72288915708478   -0.95887326160224   -0.02073664549029
C          14.12623646885269   -0.86718846045070   -0.16560217055481
C          14.41571542071697    0.45714453374532   -0.27525093735667
O          13.28917220244608    1.19924152637316   -0.20844529039417
H           1.31105954172751    0.62755333435847    1.46082235949831
H           1.20976578469726   -0.86001278264945    0.58662190353105
H           7.30389717440008    3.16453078603314    0.30520305497224
H           8.47412169527072    5.33312096902835    0.00083500743259
H          10.89647956830300    5.42108642277106   -0.30063382557004
H          12.26326950427340    3.36293373171759   -0.31011664958747
H          12.11917343617071   -1.83359560481226    0.09198349776299
H          14.82178947145632   -1.68021333610280   -0.18512385177374
H          15.33807356881372    0.98753028133962   -0.39923843500792
