38
         -76.946815201076          0.000466862592
C          -0.92057902379770    1.24659978004660    0.09232110349317
C           0.38184580677480    1.15277806274132   -0.13985495025319
S           1.30358709461835   -0.34735256453562   -0.21048849401444
C          -0.02253766225878   -1.47248627266199    0.05450437729201
C          -1.28883737666135   -1.13560647833758    0.27187745809332
N          -1.78067776783204    0.16707236280201    0.32090971131460
C          -3.08189126475201    0.42044629340582    0.58519764223393
S          -4.26933570832596   -0.82523675793460    0.94249006336624
C          -5.41143239155737    0.54799916932861    1.12653671872018
N          -4.83813081233448    1.69189148519104    0.90193580930093
N          -3.57605984496087    1.63550294007487    0.59627797789270
N          -6.68615507560918    0.23793706918244    1.33256217910112
N          -7.49045676702135    1.15715317229411    1.72322423364297
C          -8.78390315592338    0.83165202764129    1.89700333977957
N          -9.30580023525169   -0.38815003592470    2.00076001379036
C          -9.80714488004616    1.81595812289454    2.11277553292805
C          -9.96815055047036    3.19814701484270    2.14404222081370
N         -11.14733940055107    3.72104700913091    2.38776965775786
C         -12.19370784221913    2.89684694429550    2.59745733925305
N         -13.37606207868632    3.49158614278411    2.82905962532590
H         -14.17827578846163    2.92400451512137    3.02966828729881
H         -13.41353504507253    4.49237052337172    2.87932949013305
N         -12.17513098581279    1.56229685428437    2.58911851086671
C         -10.97780475336104    1.05865991955871    2.34560500890077
N         -10.60970060769156   -0.25872183891411    2.27814853187928
C         -11.38789103083413   -1.37419466441264    2.49170038601347
C         -11.04727658697164   -2.69984325589824    2.43394410721720
C         -12.23563998958558   -3.40072269844408    2.74202114386657
C         -13.19105475768330   -2.45541214977425    2.95883593853220
O         -12.68176870808953   -1.21746216567904    2.80862642497572
H          -1.42273386334969    2.20161767950013    0.12283097412241
H           0.98395289290786    2.02772816786171   -0.30806912951611
H           0.28250618066618   -2.50329196527895    0.02565097784849
H          -2.03749723917187   -1.89913556261299    0.42520001626671
H          -9.14926029589938    3.88407982189915    1.97839097363058
H         -10.08093813404877   -3.09399178101252    2.20283271407069
H         -12.35741296336000   -4.46283285014843    2.79357063897569
H         -14.22869938731459   -2.52600403668381    3.21559344508541
