31
         -59.290234413570          0.000729963749
C          -0.95126032355491    1.16558843219059   -0.38812857341771
C           0.34703512149627    1.06090665442583   -0.63815746498542
S           1.37548058503614   -0.28975507790448   -0.16330085243363
C           0.13646626628620   -1.30681359658966    0.56607804618576
C          -1.14249532122164   -0.97932028427431    0.70929121425200
N          -1.72048566036580    0.21914185902567    0.29705427051833
C          -3.02630966817661    0.48897661344681    0.52702192743434
S          -4.09003776703016   -0.56870345352123    1.44948719057426
C          -5.33448839524897    0.69015312105939    1.14032287183628
N          -4.86777943902147    1.67509816370000    0.42908774028296
N          -3.61773916567198    1.56646515535839    0.07915626477322
N          -6.57987573325920    0.39158004700839    1.46798754259691
N          -7.45330533523691    1.29931358896563    1.66907411091470
C          -8.74361335261897    0.91886784767103    1.75897537358878
N          -9.26163447658263   -0.26007761607248    1.40999457574688
C          -9.79424245685018    1.80211823950405    2.19161239491154
C          -9.86408893319049    3.11241732616041    2.65371277665168
C         -11.10670375164081    3.60983140293471    2.97951630702833
C         -12.26523543023642    2.83211721992740    2.85806495776579
C         -12.22152764824182    1.53231961882963    2.40446528650436
C         -10.96903500152835    1.02702207966796    2.07179325090922
N         -10.57050276575268   -0.18756512947635    1.59481689621245
H         -11.14868664107582   -0.98076046903841    1.36269358152021
H          -1.52271087370170    2.02336752122611   -0.70948930489041
H           0.87692338616186    1.82878079775030   -1.17310102377924
H           0.51033636256416   -2.25799575044763    0.90001001710272
H          -1.83375170369384   -1.67015135093526    1.17003060974151
H          -8.96901915312786    3.70655527849047    2.74187800763460
H         -11.19917801229758    4.62429275616300    3.33717743709256
H         -13.21611345909730    3.26673155777773    3.12818048083998
H         -13.11325125311868    0.93172744697623    2.31079408688737
