38
         -76.606203986024          0.000615472268
C          -0.93902311737801    1.21681234251341    0.07665056113722
C           0.35768960673228    1.10934650313458   -0.18043317610499
S           1.26848175485490   -0.39760717571974   -0.23706571242682
C          -0.05944757250546   -1.50832454166953    0.07262932765176
C          -1.31878280223519   -1.15881181188799    0.31009883753482
N          -1.80051240790875    0.14801500439494    0.34703477358264
C          -3.09532572858292    0.41507458665275    0.62621585591307
S          -4.28407688309846   -0.81425763789702    1.02928959919554
C          -5.42026663226209    0.56967183153147    1.18411356598120
N          -4.84148110740704    1.70375145165201    0.92801805694187
N          -3.58261644851802    1.63370134967892    0.61649470498714
N          -6.69051515880790    0.26840167542887    1.42617959113224
N          -7.49786019529929    1.22393589821992    1.72965261918918
C          -8.78675778241839    0.89755683601987    1.92855573089792
N          -9.30832215061102   -0.32502810777727    2.03006040719293
C          -9.81614585445284    1.87684537212763    2.13499220757660
C          -9.98552449898727    3.25894208722294    2.16276911862567
N         -11.16897228157991    3.77437976230704    2.39728710823060
C         -12.21349024335721    2.94625920974334    2.60499787075128
N         -13.39526466056274    3.53910275184456    2.84033136206607
H         -14.20765202289190    2.97420848594030    3.00271391910051
H         -13.44176569138552    4.54054794227944    2.85131610426642
N         -12.18909840409938    1.61127308683638    2.59875540251571
C         -10.98520081432186    1.11573938199838    2.36238649362931
N         -10.61409879766985   -0.19697940323720    2.29515440471150
C         -11.39625348419845   -1.31044608048028    2.48823708563318
C         -12.72929115771672   -1.47599049233427    2.78376689281354
N         -13.00271919243827   -2.79959393607083    2.87040264101601
C         -11.88228264105880   -3.42595068387693    2.63758519224445
N         -10.86365762796947   -2.56567243079357    2.39650307139286
H          -9.89465513649456   -2.74990926080016    2.18872137779667
H          -1.43472074379596    2.17554148834841    0.09576997970015
H           0.96109014811918    1.97665759240979   -0.38089158075025
H           0.23718964474620   -2.54183949992374    0.05357284415221
H          -2.06954804790035   -1.91447676833939    0.48998203191953
H          -9.17009792701571    3.94925645453983    1.99842672968406
H         -13.47524471934566   -0.72436382466389    2.93167389038697
H         -11.76664922017734   -4.49061943935124    2.63439110973188
