23
         -51.545674039304          0.000829760479
N           1.60667880984379    0.36365391536048    0.52840153970509
C           2.72770636404197    0.29125990186727    0.29630855685852
C           4.10080106983921    0.21590631662367    0.04627289988693
S           5.28417767157665    0.80661957853227    1.22245892532814
C           6.48827921302622    0.21721844141768    0.06236134749023
N           5.94087179455228   -0.28671872266138   -1.02682541687288
N           4.64780155477295   -0.27464064150625   -1.01966847067383
N           7.74748438835021    0.56432998526810    0.22013611625713
N           8.76533493367540   -0.15908692198633    0.11302930826908
C           9.98206889692132    0.42210572916203    0.04229949775336
N          10.23419439465646    1.71059570227472   -0.19505862949853
C          11.21397824154605   -0.30463190976257    0.13201316898117
C          11.69131922011803   -1.59867692770296    0.34651254777797
N          12.97959160901520   -1.83089539536211    0.34686287425102
C          13.83695859264222   -0.80710295123936    0.14149753254846
N          15.13925257825033   -1.12138415169542    0.15880662408011
H          15.82332566890955   -0.40525479440121   -0.00117309620374
H          15.40610237856793   -2.07797573831736    0.30124977063764
N          13.51287977150557    0.47160711243417   -0.07079158342442
C          12.20807814165459    0.68427119567296   -0.06927521077546
N          11.54860552455298    1.85675373699470   -0.26191306160403
H          11.94727863307559    2.76235056806828   -0.46051746223681
H          11.03851054890806   -2.44380402904046    0.51383222146279
