29
         -60.514020826301          0.000457289404
C           0.55037685221729   -0.79179059903219    0.85014290651862
N           0.47757026226778    0.53645362918222    0.63462602947457
C          -0.49772778468841    0.71353305616700   -0.22003044906254
N          -1.07358924059029   -0.45164745599016   -0.57755059666357
H          -1.83730626502360   -0.61552682320774   -1.21393238338054
C          -0.41281197509569   -1.44549129346351    0.10204764546891
C          -0.76903790627848   -2.81474562080549   -0.02837312588743
S           0.03110955131856   -4.11207048605673    0.83808271557630
C          -1.15924560968065   -5.16906680254492    0.04205700292004
N          -1.95545944545943   -4.51156788793492   -0.76038981137746
N          -1.73133767070575   -3.22966260120154   -0.80420101963063
N          -0.99849400556148   -6.48183018655150    0.13781664274791
N          -1.97458460309507   -7.28978582842446    0.11352544110078
C          -1.73014452929903   -8.60195824566984   -0.04297064421660
N          -0.58882794603973   -9.16531280882914   -0.46294141612004
C          -2.72768187449398   -9.61988767019945    0.14738726684550
C          -4.05802161308166   -9.64852799197494    0.55748981958180
C          -4.68484497398301  -10.87380080790363    0.60960400962299
C          -4.02084984183428  -12.06043161787109    0.26964702556277
C          -2.70508893091829  -12.06566508097466   -0.13636811432427
C          -2.07386250668423  -10.82843923087582   -0.19085744870454
N          -0.81982920594868  -10.43871891023139   -0.53211981495374
F           0.15010704804096  -11.27401605453868   -1.00645792030134
H           1.27428680412180   -1.21415305174634    1.51736648891561
H          -0.80790765329937    1.66755042215042   -0.59694875402072
H          -4.56541076779411   -8.73382650765940    0.81632204714441
H          -5.71725683449183  -10.93008169776517    0.91907410760389
H          -4.55867965904513  -12.99414333030320    0.32814482010189
H          -2.18673967487363  -12.97360851574425   -0.39977247054191
