20
         -47.734581987306          0.000801619088
H           1.17387448878247   -0.62322411592248   -1.23297140745123
C           2.17846600669260   -0.35420511623502   -0.97766625058095
S           3.10666140216370    0.75506620097352   -1.93974106810284
C           4.40800699066420    0.42266883588439   -0.78141487742494
N           4.03323967147746   -0.38997278542954    0.17016987285223
N           2.80033528297730   -0.80486297545418    0.05171966697419
N           5.50068929667991    1.18215167919810   -0.81981157805830
N           6.65617253208579    0.74354035490355   -0.55301727699116
C           7.62750858776903    1.67282205283954   -0.39388219308219
N           8.89350411337276    1.28491326810683   -0.29471491735326
C           7.55213637587924    3.10520646787429   -0.23803121473638
C           6.61967305333769    4.14207540499379   -0.21694664916328
N           7.02326402982265    5.38225234200695   -0.03773560948764
C           8.31931829557068    5.62734295124070    0.13284400483274
N           9.30531180780317    4.75262118871182    0.14777876363368
C           8.89983556926775    3.50761026833142   -0.04149167688633
N           9.61049641026117    2.35635568125226   -0.09438777033541
F          10.95138398999132    2.23173094641261    0.02708146177364
H           5.55882682339819    3.97785573254101   -0.34657207036565
H           8.59608527200297    6.66180161777056    0.27930078995280
