21
         -52.248723095929          0.000450128035
N           3.78412959155132   -5.04732508707891    0.30301721347207
C           4.53957251401248   -4.20739730546088    0.10929669986656
C           5.47714335303219   -3.18866281792484   -0.09598689465366
S           6.73808533580604   -2.84353567690261    1.08641333391773
C           7.18488634976755   -1.53007078393182   -0.01455339683599
N           6.43938501346297   -1.50188341879643   -1.10131889571084
N           5.52324424788396   -2.41076729655014   -1.13356006988323
N           8.32793283588959   -0.90044217127431    0.17926012586324
N           8.53439239422910    0.32577271024088   -0.00337057915480
C           9.80127790690936    0.77937507136257   -0.05533516461602
N          10.89668279969902    0.04925846429563   -0.28410545636776
C          10.16140845847379    2.16624911928676    0.02175205216029
C           9.58494665052156    3.42143330657299    0.22275089285867
N          10.34258222528656    4.49643484093018    0.21423736455115
C          11.65304201416647    4.37197869571653    0.01934173278127
N          12.32999388824730    3.25920221397807   -0.18041254584140
C          11.56789162858622    2.17802769439855   -0.17685393390796
N          11.89965495677375    0.87634081357177   -0.34992056705406
F          13.13099238012353    0.39589580578619   -0.64308101968086
H           8.52499367495282    3.55905494396794    0.38364785941250
H          12.22773178062254    5.28716087781159    0.02556124882226
