32
         -59.040214092278          0.000450053273
C          -5.19038859212010   -1.10047256921326   -0.58619236401179
C          -6.08499304973602   -0.08750236599987   -0.20624740510792
C          -6.91018428738841   -0.46745311928797    0.80867979049795
S          -6.61554854911222   -2.07669777065349    1.32346533167516
C          -5.34692642050137   -2.25029315791034    0.15140710096075
C          -4.59685527144713   -3.45123622564543    0.02070758419135
S          -4.84285211931288   -4.87138513358812    1.03855694819138
C          -3.49070202399164   -5.57318091225889    0.12616697616688
N          -3.04139568486815   -4.76520846667744   -0.80307921206016
N          -3.65404898317110   -3.61898342454633   -0.85848847764954
N          -3.23546140100085   -6.86279642216980    0.27163624194219
N          -2.07438585473273   -7.36378747018379    0.20309822934413
C          -1.95293481026014   -8.70121110458877    0.11364674758986
N          -2.92725496707109   -9.59158136793469   -0.10288488927320
C          -0.69037886784549   -9.38268157510038    0.19025205264225
C           0.63437165310758   -9.00612414794031    0.38796943174551
C           1.58605876415911  -10.00147807345857    0.39478664383623
C           1.24407884334766  -11.34784282632968    0.21297316455531
C          -0.05958613751716  -11.74486757089337    0.01578836923114
C          -1.02507907317268  -10.74238042299810    0.00591773914069
N          -2.38050266659641  -10.78545558699703   -0.16815183031712
C          -3.18494102192108  -11.94722106421135   -0.40337256994149
H          -4.45438848264307   -1.01568416339360   -1.36382563164884
H          -6.11807618619680    0.88423652008127   -0.66526610173875
H          -7.67998263964342    0.10402146153353    1.28816719001391
H           0.89019961807471   -7.96814065161315    0.52521874409411
H           2.62460889840169   -9.74648551990218    0.54253446391231
H           2.02701771044150  -12.09116516864299    0.22777335281211
H          -0.32031347167041  -12.78249208370979   -0.12354531529440
H          -3.14495892121699  -12.61957418353762    0.45640962105890
H          -2.83274391205195  -12.48046599369857   -1.28823939289293
H          -4.20961209234229  -11.61655943852809   -0.55822253366515
