16
         -37.596459478094          0.000790390664
H           1.06496275793257   -0.27984069041925    0.09115465018776
C           2.11941845868507   -0.08906786398325    0.08809729664446
S           2.76386402617909    1.51057942979298    0.08939820778203
C           4.34856345636259    0.70151778806317    0.08241968624502
N           4.23815342972517   -0.59025747409878    0.08130023298441
N           3.00690429484486   -1.02605438605417    0.08467827045897
N           5.43277074362003    1.50149772539026    0.08280552789198
N           6.58081725945886    0.94364712644460    0.07157110295083
C           7.63459859462476    1.79806384567543    0.07467897723175
C           7.68533404535897    3.22424894440406    0.08593731978799
C           9.02022660112778    3.52828233686195    0.08246356099267
N           8.87660319341455    1.29500100601664    0.06520477546017
N           9.64200051772357    2.33167965107106    0.07028237813641
F          10.98775546769933    2.17569203499046    0.06337718283908
H           6.84775909128415    3.88932456839088    0.09462208143536
H           9.56112806195865    4.45167595745396    0.08734874897110
