22
         -47.021150299525          0.000841360002
N           1.44390649447632    0.22597037281765    0.02114934227375
C           2.78137475401820    0.18621196070841   -0.02132421720900
S           3.78199269615221    1.62039325624873   -0.00854367972145
C           5.15551619669146    0.46345639240013   -0.03550637577730
N           4.75040823386073   -0.76711614559450   -0.05199452002250
N           3.46026538511539   -0.93495453235378   -0.04562003710515
N           6.38066853721187    0.99389785654473   -0.03770702633604
N           7.37844187444132    0.19063169547234   -0.05015067310723
C           8.61192859615977    0.74690402973257   -0.05501348816793
N           8.93190765345232    2.03750197175990   -0.06076092023162
C           9.81191682616330   -0.04480150939596   -0.05690652598354
C          10.21907256148413   -1.37483675000306   -0.05437018311454
N          11.50577895882093   -1.66506233995603   -0.05730970039136
C          12.39008446255323   -0.67182780304133   -0.06241369746360
N          12.15061589813624    0.62469143005679   -0.06623543139154
C          10.85550658698031    0.91650722588113   -0.06327248824180
N          10.25756884005392    2.13265017135247   -0.06586284061941
H          10.70048018686741    3.03923080348887   -0.07121543500350
H           0.95607579328386    1.09764349009063   -0.07207759029016
H           0.94236430074597   -0.64038484016353   -0.07051034128654
H           9.52099526523616   -2.20020504600052   -0.04979091847854
H          13.43146989809492   -0.96385169004567   -0.06551325233102
