25
         -50.998836703226          0.000326530846
N           1.54644710821643    0.01049740585354    0.98788218007929
C           2.87575835486885   -0.03994528551800    0.82398846114735
S           3.95310749434568    1.21114941756178    1.41792025023929
C           5.25136307562465    0.20585408505630    0.68749061949678
N           4.77879400729625   -0.85317987586539    0.10907541710870
N           3.48430261701682   -0.99141530065246    0.16824589970585
N           6.47701026127501    0.72479328677767    0.67830066669045
N           7.48993374775244   -0.02564876990129    0.47221743939034
C           8.66716462597083    0.62839784404081    0.31910522757678
N           9.77663476558579   -0.07647030508481    0.20860020199841
C           8.95664521910797    2.04669256651485    0.21106937515885
C           8.21669614315638    3.22329773233184    0.25191538426989
C           8.90074755970293    4.41327730058081    0.11119635369371
C          10.28597489680941    4.44861288880537   -0.07054101976618
C          11.04067567668986    3.29352396639127   -0.11746504163452
C          10.34968054309348    2.10100490120714    0.02766433999731
N          10.78915551320529    0.78402197958225    0.03595911456844
C          12.05050121534615    0.40239008389105   -0.10611830787239
N          13.15452231127046    0.12694067685049   -0.23199258412230
H           1.14161141401199    0.68567525861848    1.61060351195040
H           1.01400427411864   -0.80241973495883    0.72900872657578
H           7.14863775099961    3.19316753492692    0.39314160712424
H           8.35642016338518    5.34496676980676    0.14189097690559
H          10.77694009933242    5.40384324850017   -0.17729027075338
H          12.10996116182238    3.31076232467757   -0.25923852953204
