30
         -59.925380030686          0.000327566594
C          -0.98081498416405   -0.41751958613496    0.72197599082350
C          -0.42866351311239    0.83374185014960    0.40729317504414
C           0.52803016833602    0.75868498281256   -0.55956859440198
S           0.77851557405057   -0.84596541399892   -1.10917565086036
C          -0.43295488979662   -1.43988765466745   -0.01695714387929
C          -0.78076190959761   -2.81669624918335    0.05195701251870
S          -0.05924702411162   -4.05884667450905   -0.97203626470793
C          -1.18162269426214   -5.16809523498067   -0.15876247067788
N          -1.90339053061317   -4.56830060709031    0.75620420629750
N          -1.67149658305571   -3.29418839524760    0.87050238112968
N          -1.02371213401689   -6.46888485005509   -0.34345156382243
N          -1.97350717904799   -7.29999692097459   -0.37925537309547
C          -1.67290842714662   -8.61877674550546   -0.33454072543715
C          -2.64447656107907   -9.63874026572805   -0.54642280302723
C          -1.96300226594255  -10.80740704524481   -0.37772623203173
N          -0.48486464697223   -9.16550687357543   -0.04976436873229
N          -0.67289526058526  -10.46994325579772   -0.07645485426344
C           0.36367812798614  -11.33957204406946    0.18618489893460
C           1.67270450667821  -11.09109428753069    0.49671889206538
C           2.26637816912402  -12.36504947682784    0.65469762477566
C           1.28249537880187  -13.27744671796620    0.42984030760482
O           0.11725514953347  -12.66300378625945    0.14304198986323
H          -1.74800888757986   -0.58852858671240    1.45354284172758
H          -0.72705934489998    1.75408623445665    0.87602641697160
H           1.10415277823711    1.55562326342312   -0.98629712910148
H          -3.67468879667338   -9.49050163359751   -0.78961696796602
H          -2.26518292073747  -11.83264068250842   -0.43697862732788
H           2.12631617860583  -10.12802662996052    0.59360085854268
H           3.28729363912710  -12.56909597657405    0.90188859982794
H           1.27591888291381  -14.34862073614325    0.44085357320702
