34
         -70.889972771597          0.000557977351
C          -4.66611288476654   -0.79974897327698    0.05255111630435
C          -5.83553102646455   -0.01770052604324    0.05568764976125
C          -6.87931613281171   -0.89948330053393    0.05285101337329
O          -6.44023956065640   -2.16121621190339    0.04808506842524
C          -5.08946957684711   -2.11242035808437    0.04791881713661
C          -4.33631774788306   -3.31949547308528    0.04351428591356
S          -5.07190762639221   -4.90001847475673    0.03494692396869
C          -3.39985571185881   -5.51102654264485    0.03442063400561
N          -2.52318259519138   -4.54582258140875    0.04077656404316
N          -3.02595000786045   -3.35138347554571    0.04579648104337
N          -3.25438037256140   -6.83930922219487    0.03115877246731
N          -2.06269365637082   -7.31711254526962    0.02560997809689
C          -1.95636230138804   -8.66111671469277    0.02586799501998
N          -2.94582090686823   -9.55245213608238    0.03236394915123
C          -0.69421181784459   -9.34834163192414    0.01917264857223
C           0.67150229124001   -9.08012912228543    0.01121360103723
N           1.53478892872855  -10.07657622741819    0.00708873639718
C           1.07674825769913  -11.32508847583030    0.01062081217186
N          -0.18005907291031  -11.72193759019332    0.01802406024309
C          -1.04617224181825  -10.71980598216296    0.02223233343228
N          -2.41611969977642  -10.77168884928223    0.03014516973000
C          -3.22723692217620  -11.88581365002849    0.03526695741248
C          -4.59531031473492  -11.96919514843956    0.04194741383785
C          -4.87932333684626  -13.35295048036749    0.04460432211669
C          -3.67458944050134  -13.98995272409360    0.03934926063218
O          -2.66465848128466  -13.10269860605969    0.03366650469392
H          -3.64826249589517   -0.47127423490309    0.05338996045143
H          -5.89772049966144    1.05084601476824    0.05953859479627
H          -7.94120238576748   -0.74999784780874    0.05383222397194
H           1.06936911578723   -8.07507401425492    0.00828652428730
H           1.82330350542534  -12.10729456960863    0.00689091894803
H          -5.27883288477331  -11.14715411088586    0.04447739354124
H          -5.84810055187263  -13.80738245127580    0.04968836600305
H          -3.40970184509705  -15.02796376242295    0.03901494901321
