27
         -56.406041220250          0.000829747681
C          -1.16512343928582   -0.39049846280178    0.00920365324826
C          -0.44104342356244    0.80969911502041    0.00893619921995
C           0.90816125251385    0.60928454416579    0.01102928176785
S           1.32620727088678   -1.05067626338743    0.01341003019007
C          -0.35065951009889   -1.50112802591377    0.01154572946730
C          -0.77456086178673   -2.85735900887215    0.01292277200435
S           0.30949245122912   -4.22763129718330    0.01835592052627
C          -1.17020175057958   -5.21217324887214    0.01747041215560
N          -2.24843118947275   -4.47939225956511    0.01324813935287
N          -2.04042596891537   -3.20230083779803    0.01080547412925
N          -1.01207743115371   -6.54156456015987    0.02163453561979
N          -2.07015128389592   -7.26286256142692    0.02255752193014
C          -1.89566966662017   -8.60374888533910    0.02670072217809
N          -0.74890645750754   -9.27962215712531    0.02601111564974
C          -2.99613179921513   -9.52808162720637    0.03194463119976
C          -4.38761633169626   -9.54059506783607    0.03514403401311
N          -5.03037407923092  -10.69200666785006    0.04038674368750
C          -4.33015131371191  -11.82240659349846    0.04261597961183
N          -3.01879423661379  -11.96082107842123    0.03980157738169
C          -2.37249951708027  -10.80177053579467    0.03454607853192
N          -1.03519595394524  -10.57499720636296    0.03056717031558
H          -0.29244118536522  -11.25831854955086    0.03060498093976
H          -2.23625534918741   -0.46779184383309    0.00784947982353
H          -0.89578595890773    1.78367335786992    0.00734494576861
H           1.68612800956262    1.34707859593085    0.01133710960949
H          -4.98186014674570   -8.63765702393947    0.03373121458413
H          -4.90579212961387  -12.73794185024883    0.04640454709356
