33
         -59.609168425911          0.000787094775
C          -1.27635548287671   -0.29094479261702    0.01703112078032
C          -0.38497861175518    0.79898837359541    0.01264218189215
C           0.86920778766140    0.26042141897193    0.00729720823987
O           0.81619441471235   -1.07665346169751    0.00805082522470
C          -0.49020887406735   -1.42192229212603    0.01399292876898
C          -0.87097735957610   -2.79543943389058    0.01628306852482
S           0.28530341748474   -4.10962788823246    0.01123965955946
C          -1.14685407338868   -5.16438713182581    0.01843485401497
N          -2.25791529206752   -4.49019719155937    0.02357217179267
N          -2.11137882249583   -3.19481434864382    0.02240342782218
N          -0.93011444206962   -6.48986681233412    0.01851888348229
N          -1.97765983720639   -7.24211905088093    0.02280082851538
C          -1.77141678106355   -8.56858406633832    0.02365251811356
C          -2.83131450285817   -9.47027293291972    0.02878215556806
C          -0.56816165341153   -9.37289095188468    0.02010339853531
C           0.78765118711462   -9.07045551248593    0.01443555283560
C           1.68950883720556  -10.11591311962369    0.01222131309973
C           1.25993203251886  -11.44203167743111    0.01556316942783
C          -0.08333196266001  -11.76486709127727    0.02119156546140
C          -0.99552198980383  -10.71949675024268    0.02340752421387
N          -2.37736025938679  -10.73601947589900    0.02868805237763
C          -3.21949304973134  -11.89975282476789    0.03371536220039
H          -2.34568686669665   -0.27432010770189    0.02176725900474
H          -0.63753712742678    1.83935252424899    0.01334411500461
H           1.84180227590885    0.71175575845055    0.00283073900526
H          -3.88028759723280   -9.24473092297536    0.03255027713448
H           1.11031848144974   -8.04202433630956    0.01189702789901
H           2.74895841491725   -9.90821810022824    0.00782766153986
H           1.99264636425710  -12.23522778224936    0.01370793619389
H          -0.39683344271522  -12.79826222403681    0.02371118593977
H          -2.60527977459781  -12.79652516624499    0.03043731265259
H          -3.86189058401936  -11.90893310327215   -0.84950253182379
H          -3.85192482612323  -11.90860952557066    0.92413124699842
