30
         -56.090775902581          0.000916964661
H           1.04155965416894   -0.49413148778454   -0.96604529968590
C           2.06911266851549   -0.25278902174121   -0.78582113278800
S           2.90100685723904    0.96596137883103   -1.71212012662679
C           4.31223913859985    0.52331902587812   -0.72206901277437
N           4.03283676900665   -0.39889501935616    0.15748254404514
N           2.78742061172073   -0.81565364319546    0.11307680925967
N           5.39099539861448    1.29655995010447   -0.76821328376715
N           6.57702455045442    0.85034411300999   -0.69873564678427
C           7.57050785985948    1.73877916365822   -0.50205603801523
C           8.90071403447014    1.34688172040477   -0.47562792291826
C           7.56248370908620    3.16109451582205   -0.23498189545192
C           6.55300536033585    4.10919870021651   -0.12157035061384
C           6.91124974065626    5.40929491196048    0.17416876930756
C           8.24447080042262    5.76710465908114    0.36908880077444
C           9.26399545617531    4.84083995930362    0.25851948976673
C           8.90917300294080    3.53939612107571   -0.05986240455117
N           9.70119513030556    2.40770504898828   -0.21893587995274
C          11.08126221000654    2.36037945695521   -0.12243646789458
C          12.06685332277917    3.24633599626635   -0.48492143260685
N          13.28139865348390    2.72490970969789   -0.18663284271237
C          13.06105826502120    1.55686094514313    0.34142116423080
N          11.73572578696021    1.27404291685210    0.40540021560264
H          11.30169795977429    0.44787538283810    0.78409152888092
H           9.29369101398408    0.36406121362938   -0.65248712017028
H           5.52234906790911    3.82465256873325   -0.25961526581995
H           6.14615235190313    6.16527552960961    0.26596303816838
H           8.48627864484373    6.78984626756799    0.61540290540497
H          10.29194012980029    5.11896665870808    0.42677478458324
H          11.97614484374015    4.20179406295600   -0.95817943611684
H          13.82096700722086    0.88492919478806    0.68461150922760
