21
         -48.084846771167          0.000658178699
N           1.46279360051254    0.33760011343014   -0.03979274239582
C           2.60535543175491    0.25355018144285   -0.03709630380989
C           4.00594068111866    0.18144277505168   -0.03675983195977
S           5.00106872469163    1.61602781193391   -0.03351024400596
C           6.35918764500060    0.47874238353570   -0.03297322267079
N           5.97039534132368   -0.76646109624390   -0.03657751090833
N           4.68728116120947   -0.93146180993095   -0.03856531755717
N           7.59345200093946    1.01150604625953   -0.03646869368977
N           8.57747239866176    0.19556574248736   -0.02389554625216
C           9.81824933726002    0.72423688345784   -0.03037934961940
N          10.15370318405140    2.01544036140490   -0.03111510704003
C          11.00998687318782   -0.07921319635730   -0.03110540105183
C          11.40879702145202   -1.41409241242029   -0.03147005935305
N          12.69268825431879   -1.70936650772150   -0.03224036062869
C          13.58577288665475   -0.72395888950668   -0.03312640701200
N          13.35281120867663    0.57406289833739   -0.03335716472049
C          12.06084575563414    0.87215626620866   -0.03240073649351
N          11.47122594726925    2.09692147466626   -0.03153460084594
H          11.92525216871799    2.99917747011430   -0.02987586123196
H          10.70709708021423   -2.23621943573463   -0.03100300345380
H          14.62488329735026   -1.02271706041525   -0.03376253529967
