25
         -51.818948985870          0.000970157184
N           1.75312790789000    0.04038088547481   -1.43544669517343
C           2.85974803461183    0.00282012669038   -1.13673643886638
C           4.21737750739494   -0.02379261983944   -0.80400458284168
S           5.43438690374488    0.71774734790201   -1.85237898714361
C           6.59496425468162    0.10895303798666   -0.65766844286078
N           6.01381130875974   -0.50435227242389    0.35038061054230
N           4.72270045889624   -0.56607777831155    0.25660522020879
N           7.84361360040517    0.53484260634120   -0.70716732544470
N           8.88671888444024   -0.15687693839337   -0.56862730398103
C          10.05949626401940    0.49349562110196   -0.40591145153567
C          11.25890418441859   -0.18620163808632   -0.31192168089376
C          10.36119448726324    1.90648084591413   -0.25860764617960
C           9.59313486404192    3.06353303026508   -0.26437337218606
C          10.23983961228368    4.27304532831723   -0.09226101131331
C          11.62012684245155    4.34390832933753    0.08410915009251
C          12.40470386338498    3.20443123533945    0.09287421770545
C          11.75299700663679    1.99710274052363   -0.08156710725407
N          12.27520660210636    0.70088164078785   -0.11910129666457
C          13.55899648090887    0.39844197973820    0.01723252695546
N          14.67049678955833    0.15337609369758    0.13416021922954
H          11.43818525417594   -1.24277384170284   -0.36960054089666
H           8.52486388722528    3.01187585406529   -0.39947721106160
H           9.66443693939105    5.18601365084125   -0.09363784055212
H          12.08774492345206    5.30703377289334    0.21705847799338
H          13.47417313788444    3.25035096154690    0.22930851212443
