30
         -60.066269895151          0.000349561339
C           0.60576134833846   -0.86306377670075   -0.78744055342321
N           0.59188474835785    0.45094068586971   -0.48574234376821
C          -0.34567332882103    0.60745467772029    0.41328918287298
N          -0.95447414653148   -0.55699149368391    0.71609375069825
H          -1.70284538663131   -0.73253530422082    1.36709162542917
C          -0.35603593888332   -1.52781448861384   -0.04875066689683
C          -0.75532664385132   -2.89057210594374    0.01232459498676
S          -0.03277527748398   -4.15426368377755   -0.96972413095274
C          -1.21850099295995   -5.22660567826664   -0.18401120846139
N          -1.95797324855372   -4.59898003203153    0.69167413252273
N          -1.69315151986189   -3.32662193444046    0.80205171586586
N          -1.08642422245535   -6.53531897974441   -0.34958755775497
N          -2.06476254950058   -7.33611034820063   -0.38779440110414
C          -1.80022004116842   -8.66137661888037   -0.32769604911053
C          -2.79485829177418   -9.66215252271256   -0.51041467127439
C          -2.13611572502381  -10.84542227068901   -0.33865802899462
N          -0.61947014527337   -9.23373939466630   -0.05683467086201
N          -0.83646857274951  -10.53520455946841   -0.06531060045967
C           0.20186946147646  -11.40561402052021    0.18733661479681
C           0.29192342545961  -12.77746795805576    0.25489287747966
N           1.56846469920280  -13.12671624354837    0.53469706455404
C           2.24335429431246  -12.01478731837180    0.63649752747213
N           1.46009052786423  -10.93076895590604    0.43360080031090
H           1.69337153718871   -9.94983274996679    0.44856360372208
H           1.28977383583099   -1.26730105947110   -1.50603468882225
H          -0.60600871422361    1.54527520928045    0.86173225659688
H          -3.82580024398103   -9.49468918383629   -0.73724022427080
H          -2.46892147822309  -11.86142116980115   -0.38223386731923
H          -0.46892649956106  -13.51842535534979    0.12232207824249
H           3.29020908948143  -11.95523336600053    0.85340583792540
