36
         -73.522984444317          0.000716824241
C          -0.68535246696066   -0.49535660542466    1.02409944808278
C           0.07926738369452    0.59203750326549    0.56099505360738
C           0.81219264037498    0.11861983002172   -0.48938005033134
O           0.55705657846450   -1.17659957106060   -0.70560084483175
C          -0.35646874118709   -1.56043582572664    0.21338819163401
C          -0.82517525715011   -2.90374297386941    0.23292678081825
S          -0.29287267782166   -4.11513903090232   -0.92360358748983
C          -1.41489676346396   -5.19827478272785   -0.07154481542587
N          -2.01077798363010   -4.60790117304892    0.93787258120825
N          -1.67632733913734   -3.36437679579226    1.10397778507301
N          -1.36269674138329   -6.49142488475995   -0.33742426004226
N          -2.35660290243400   -7.27096597285530   -0.23336871083466
C          -2.12935086850855   -8.59666011905754   -0.21857036174501
N          -0.96834286735627   -9.19805961824302    0.03636920263092
C          -3.15931264516749   -9.58535154383129   -0.36299802440366
C          -4.52688085764442   -9.67762000423653   -0.61294364532985
N          -5.11121795454489  -10.85063476950752   -0.66321709237244
C          -4.36889395973522  -11.95994104511617   -0.47441056847836
N          -5.02596715319560  -13.12818074636185   -0.55693388642056
H          -4.53881274823372  -13.98513090016930   -0.37225149614290
H          -6.01981719485302  -13.11407580370495   -0.69176262297966
N          -3.05723220068568  -12.00992519750489   -0.22639095923699
C          -2.48886390525956  -10.81552375488474   -0.17822537189124
N          -1.17575539737413  -10.51153009044973    0.06726327246466
C          -0.14670010436353  -11.38055193801102    0.33850324406389
C          -0.19323909356879  -12.74575629815753    0.40138802605071
C           1.06883365776017  -13.29419189435194    0.70033743112552
C           2.03341698147287  -12.34818407117512    0.85563540065977
S           1.43647118664952  -10.74954464683923    0.64182027013528
H          -1.38304560844799   -0.51868951043581    1.83428384896771
H           0.08599948616572    1.58868444119255    0.95164096517320
H           1.52452011973538    0.59206204929786   -1.13613879227510
H          -5.15232326135467   -8.80950292723104   -0.76599854639871
H          -1.09457967795175  -13.30541913010121    0.23793006087405
H           1.24958045295143  -14.34945386688735    0.79545677581599
H           3.06994788414269  -12.49304833135214    1.08550529824416
