32
         -63.200642292970          0.000650070149
C          -0.84193258907344    1.26876406041472    0.06778636449979
C           0.44936632071810    1.17439722737953   -0.21748267665466
S           1.35222615420237   -0.32956628717499   -0.39698686896763
C           0.03392214178917   -1.45452330517221   -0.08713973597021
C          -1.22035248688922   -1.11680433759504    0.18769987736014
N          -1.70553436972810    0.18696137560514    0.27542660784865
C          -3.00304645637392    0.44035803419202    0.55873827690090
S          -4.19691754548297   -0.81198293859119    0.86122802612856
C          -5.33736370307116    0.56105690161544    1.08364806690316
N          -4.75606968778408    1.70520001189126    0.91985484386242
N          -3.48617027291110    1.65619065204768    0.63311062241409
N          -6.59911186871415    0.23193366438485    1.36356102055577
N          -7.44060613138205    1.18765519969121    1.56771848442646
C          -8.70683014173169    0.80958596162388    1.83688019777886
C          -9.71129060365064    1.74043136328082    2.07359623386987
C          -9.32124042325145   -0.49778234883050    1.95262014080989
C          -8.85330574888094   -1.80160938089618    1.83112955723447
C          -9.74598839397127   -2.83845054770364    2.01628822738103
C         -11.08802212194676   -2.60397993853324    2.31842428017469
C         -11.58237427146897   -1.32105432507580    2.44529768049865
C         -10.68481417246313   -0.28185143027193    2.25896728815558
N         -10.85162121147854    1.07355993003527    2.31549362446254
F         -12.04430150452185    1.68928031927251    2.58817642303381
H          -1.33312820668631    2.22513633879371    0.16328743134172
H           1.05581455736384    2.05021599171230   -0.36369731753514
H           0.33511300889659   -2.48556599265438   -0.13905242682149
H          -1.96399943769569   -1.88024960409574    0.36462895722477
H          -9.65753973861194    2.81022395530816    2.07681765904731
H          -7.81643528335403   -1.98089899144661    1.59800161463842
H          -9.40195004323660   -3.85778288619108    1.92630618816836
H         -11.75325390499889   -3.44273528366372    2.45611320786726
H         -12.61838186361059   -1.13055338935225    2.67910812336220
