27
         -50.022801898110          0.000550078380
C           2.77446391749126   -0.97141080732526   -0.20108699163331
O           3.46834573324945    0.26259955008002   -0.09612227653241
C           3.77304575187127    0.63523983417573    1.13471760793069
S           4.66707946780612    2.12871174864045    1.37884736562967
C           4.56968861340665    1.69393308141492    3.11433420107757
N           3.91912845043512    0.59273650990704    3.31831522489464
N           3.46995198173693    0.01009117446669    2.21955696979295
N           4.94443866115095    2.61291555466401    4.00270989014774
N           5.45734353282215    2.30114970115778    5.12479927831160
C           5.61049173175217    3.29144822225018    6.02847472237746
C           5.19796057332895    4.62235030321163    5.99298280952100
C           6.26132879848419    3.10498862684997    7.30092941666989
C           6.87004312794285    2.01928536807517    7.91941089975309
C           7.40596638149950    2.20402817633114    9.17740944304786
C           7.34610327505657    3.44110457071387    9.82157847237247
C           6.74581833129675    4.53285907853464    9.22672588046725
C           6.20537795765108    4.34987492169402    7.96256820383743
N           5.55349094302415    5.23758318240361    7.13709780669149
H           5.36691644764212    6.20196434518148    7.36304061049210
H           2.59318251859374   -1.11935694717376   -1.26306947429835
H           1.83224048816185   -0.92681715075141    0.34921322580251
H           3.37961649717404   -1.78566105174755    0.20325108868274
H           4.67375864464035    5.13164473377992    5.20714912130280
H           6.91169049859924    1.06585815026655    7.41824693751325
H           7.88351822186555    1.37705352255249    9.68107806172120
H           7.77779108605720    3.54456834588328   10.80567300883101
H           6.69810836725943    5.48999725476380    9.72424849559523
