29
         -55.861582244652          0.000756084700
C          -1.18054336299555   -0.39553573146016    0.00584953244586
C          -0.45134668365796    0.80293765995589    0.00395090441661
C           0.89613507842316    0.59788494008952    0.00405760535226
S           1.30644693757099   -1.06545064685859    0.00655033338102
C          -0.37177563795636   -1.50847570749535    0.00743563306250
C          -0.79783088811370   -2.86585295496894    0.00976529998393
S           0.29332317415231   -4.23321881678344    0.01432372335882
C          -1.18310882071646   -5.22370257307010    0.01656643606477
N          -2.26316267230682   -4.49642032906317    0.01263532210278
N          -2.05922748661042   -3.21423137514034    0.00885179727507
N          -1.01146935352012   -6.55190989976538    0.01680586130691
N          -2.06360666590134   -7.28607943960742    0.02952883543332
C          -1.87680633698332   -8.62126373690712    0.02801831603470
N          -0.71620764154948   -9.28205528490078    0.02443554666469
C          -2.96718773806440   -9.56060606441373    0.03484282575837
C          -4.35546100851794   -9.47010503406969    0.04001732508159
C          -5.07087385286438  -10.64729462550758    0.04586295633472
C          -4.43511352551718  -11.89554104931067    0.04658749303604
C          -3.06261576912908  -12.01044594005738    0.04126005141321
C          -2.33667038659552  -10.82412753362902    0.03514291065122
N          -0.99470625063349  -10.57165766427612    0.02912794542802
H          -0.24066952989157  -11.24234412331707    0.02907601000611
H          -2.25197069696974   -0.46817114085693    0.00614883436856
H          -0.90293107370431    1.77850971041586    0.00263075617963
H           1.67790320155304    1.33154489826051    0.00284952809483
H          -4.83675914689543   -8.50580736004347    0.03947041110752
H          -6.15001838334867  -10.61629891528548    0.05009856954888
H          -5.04057146054486  -12.78955258491252    0.05142956126102
H          -2.57157401871142  -12.97127867702132    0.04173967484702
