27
         -53.651950564536          0.000657378118
N           1.48327958672191    0.16912657167535    0.20155310490242
C           2.82130423593430    0.16292619789281    0.05811976443992
S           3.89300594346145    0.99820072374973    1.17533064286475
C           5.20693922359696    0.26477959385837    0.20096479934519
N           4.75010498666132   -0.44299267438646   -0.78642556899199
N           3.44400934724200   -0.48873867138887   -0.87966042202530
N           6.44722980545489    0.67643056545898    0.44356700048179
N           7.44765217418616   -0.05042169564457    0.15168987095335
C           8.67373208536031    0.50694964224196    0.17307637736852
N           8.95782735302280    1.80522088951227    0.05989177958217
C           9.89162992882870   -0.25028944040961    0.19434493220464
C          10.34462921864417   -1.56394825910255    0.27953524622651
N          11.63152231040397   -1.82184536778889    0.26168881989632
C          12.50411238156427   -0.79749403624455    0.16692875037893
N          13.80661432615338   -1.13480893112207    0.18320638433564
H          14.49845802531931   -0.42392503352753    0.03585299707238
H          14.05069604169852   -2.10742509471971    0.16796492738899
N          12.20812365986188    0.49944192717457    0.07644195507752
C          10.90268700307845    0.73661273434793    0.09472796222533
N          10.27947421902801    1.93661027168000    0.00580130923485
C          10.90273821253199    3.21545040768362   -0.16500435555777
H           1.05493193931925    0.86179748425047    0.78908835959408
H           0.94320827477995   -0.21887802456336   -0.55297709662740
H           9.67633531038517   -2.41055472484688    0.35382762400893
H          11.97805182226472    3.05540883695797   -0.20533857417440
H          10.65028509499457    3.86896765796770    0.67128041773240
H          10.55474748950051    3.67974844929333   -1.08880700793825
