25
         -50.205123629924          0.000842920721
C           1.44584999903529    0.24266381410585    0.10528955098244
C           2.91067627201157    0.21988621245348   -0.08474072610164
S           4.02454270882031    0.90474342837898    1.09470109849586
C           5.29872374400628    0.33691857931445   -0.00150236524711
N           4.81804340802931   -0.22809726574528   -1.07568293609298
N           3.50937659715542   -0.27601816245740   -1.10970533788437
N           6.54507050189976    0.74135226690795    0.21751696509020
N           7.55581546823675    0.02681876414777   -0.02460172338112
C           8.77682921035704    0.60327240824527   -0.03275016070316
N           9.04075680098572    1.89330940834583   -0.23264167649856
C          10.00313396186197   -0.13697632935438    0.04244180081109
C          10.46475305844355   -1.43895091028173    0.22498632427100
N          11.75219537539566   -1.68781266430215    0.22490649689255
C          12.61862995938397   -0.66738454708317    0.05386773285639
N          13.92041922350493   -0.99478687730939    0.07469081998431
H          14.61011191146762   -0.28421157588650   -0.08431370888468
H          14.17570715563281   -1.96039313984580    0.16641818498563
N          12.31161637712447    0.62007957506731   -0.12286711319641
C          11.00817022649987    0.84858743435491   -0.12294594318746
N          10.36318359225577    2.02987271488465   -0.28991092544747
H          10.76969852971666    2.93361566072708   -0.47702502757342
H           1.07206133798010    1.26365920004931    0.02622535852592
H           1.18645444936148   -0.13662643364492    1.09227214064410
H           0.97700103248267   -0.36925570210129   -0.66082802993529
H           9.80166909835289   -2.28133585897268    0.36421920059379
