33
         -59.247585829175          0.000984849257
C          -1.24353094773943   -0.35196474722880    0.01581202394046
C          -0.42230594205493    0.74112094169380    0.01255010229789
C           0.88470838436699    0.20999375296598    0.01124743883710
N           0.86342989942768   -1.10067332053400    0.01358547725713
N          -0.42861115016456   -1.44446441384161    0.01634582751671
C          -0.82486732964531   -2.75068629339087    0.01913548506463
S           0.32212760131471   -4.06198622392367    0.02174853562464
C          -1.12961487048930   -5.10191214188860    0.02429777301037
N          -2.23178491871270   -4.41861961024238    0.02268409662090
N          -2.07019147833870   -3.11854752672859    0.01987225277552
N          -0.92215766467853   -6.42831260078283    0.02501639575664
N          -1.97071560724023   -7.17917814348464    0.03103726318704
C          -1.76352512860932   -8.50496417133792    0.02952348355196
C          -2.82222266723851   -9.40918303924413    0.03380261460757
C          -0.55857364838165   -9.30710842326797    0.02406953004401
C           0.79650897345697   -9.00153557170748    0.01888725473559
C           1.70026253766448  -10.04548030088712    0.01519812456185
C           1.27313235119041  -11.37230855200476    0.01659210618200
C          -0.06956672467984  -11.69797251229297    0.02177426932269
C          -0.98343615539649  -10.65412537590267    0.02554396152590
N          -2.36598672375190  -10.67307006689068    0.03121811944794
C          -3.20512534676305  -11.83910397477405    0.03390941646486
H          -2.30710340871213   -0.46663928812233    0.01781785582153
H          -0.70391481728813    1.77360213188950    0.01126687766962
H           1.81880344345680    0.73510937209020    0.00868415212756
H          -3.87122996296081   -9.18388468480264    0.03812075816160
H           1.11701069381986   -7.97250802482459    0.01787727272194
H           2.75927103299558   -9.83583865367340    0.01116704720436
H           2.00729204352992  -12.16415015690719    0.01362767980797
H          -0.38093120207918  -12.73194100113581    0.02290991374615
H          -2.58862964229359  -12.73425380922541    0.03001426459187
H          -3.84663432292610  -11.84872154356878   -0.84990523590534
H          -3.83832730107900  -11.85069202602353    0.92367786171935
