23
         -51.314046933088          0.000629288882
F           1.41766383962028    0.17556244944570   -0.07125451387714
C           2.72694660082269    0.13197882306641   -0.06916589206285
S           3.68021426411460    1.59091986030434   -0.07737563690975
C           5.06077023520629    0.46096036327463   -0.06842305387616
N           4.69030952312315   -0.77945984887447   -0.06080682014743
N           3.39441253092473   -0.96760609787504   -0.06122829926235
N           6.28655733534170    1.01604836439796   -0.06908729229882
N           7.29170922758933    0.22166721184790   -0.06521571939219
C           8.50361660671146    0.81548302895259   -0.06488258743703
C           8.87565854015536    2.19977492076663   -0.07055648436690
C          10.23584589273261    2.18975869546744   -0.06749122435108
N           9.59863313686944    0.04869297962530   -0.05880512700104
N          10.62155007213830    0.87417228591779   -0.06025254075013
C          11.91415548968637    0.39698225572086   -0.05447585757870
C          12.38133833784034   -0.88957480210392   -0.04694185121048
C          13.79026325826072   -0.77400053642942   -0.04344520514639
C          14.06591256474088    0.55903637968160   -0.04909253436559
O          12.92898485131948    1.28252301225680   -0.05582598613547
H           8.20751912222726    3.03468485105090   -0.07624273064995
H          10.96297176385421    2.97599572857911   -0.06964981259517
H          11.78417857344935   -1.77621329574959   -0.04436249815508
H          14.49823521904198   -1.57624740357594   -0.03751890793154
H          14.98807301422950    1.10433077425241   -0.04906942449876
