26
         -54.273495560697          0.000635606346
C           1.50312865589602   -0.16516337002156   -0.10103352228359
O           2.75138025825414   -0.46663397596704    0.50833032604165
C           3.29727367916787   -1.61023866779157    0.14792151199440
S           4.80823060562276   -2.11473560777778    0.88443022710937
C           4.61724772553417   -3.57027917780334   -0.13606685975173
N           3.55351343464380   -3.52405825376057   -0.88011827393523
N           2.83121731757307   -2.43473995394571   -0.73214150489212
N           5.64524406098272   -4.41023465483143   -0.22210089023702
N           5.49163288631662   -5.64804528622665   -0.42197155474435
C           6.56715251103688   -6.39151546220998   -0.75795282528830
N           7.67908477487907   -5.95117758416015   -1.34387939810198
C           6.60952971849776   -7.82154589779668   -0.65008089463697
C           5.84711722011176   -8.88797148432159   -0.17821577272969
N           6.29529520218590  -10.11614937616967   -0.28253033348257
C           7.50387912866813  -10.32859012015276   -0.84386884305225
N           7.90387561316337  -11.60880703042341   -0.90673209308967
H           8.78040555962839  -11.83086980301452   -1.34034690003309
H           7.28523019943812  -12.32632550664961   -0.57772897247230
N           8.33311865253710   -9.40192039805018   -1.33019024972385
C           7.86013874477784   -8.17081601799872   -1.21825918505131
N           8.43681113439371   -7.01092182234104   -1.61887293547691
H           9.31141576325467   -6.89291933215859   -2.10668989136383
H           1.21555874893533    0.81099015640886    0.28197066883769
H           0.75785389184968   -0.91747869553487    0.16519126222562
H           1.60598503271312   -0.13981355266723   -1.18753098922261
H           4.87512947993845   -8.75725912463445    0.27658789336092
