17
         -42.114695196122          0.000790335219
N           1.46315299180403    0.25569905482743    0.15181708897565
C           2.59872211110181    0.20335540018763    0.00200952771556
C           3.98753723932078    0.16533653876382   -0.15849151357136
S           5.06057242550411    1.13909530687789    0.85409366378470
C           6.36253705847666    0.34417723680250   -0.04457194382654
N           5.91455096551498   -0.47742911903062   -0.97188824867644
N           4.62470330445614   -0.55771618605952   -1.02321106148357
N           7.59046265655204    0.81077523160423    0.06607327426813
N           8.64851163796665    0.14866209078805    0.17291506265148
C           9.83284114125292    0.78867742221819    0.03201337246134
C          11.08972752193109    0.16337498530819    0.23770193441701
C          12.01750533319854    1.13597775797497   -0.03859543033125
N          10.01046939651342    2.06811623762624   -0.34971258500660
N          11.28690511137419    2.21605574111020   -0.37422989799242
F          11.82141220478955    3.40870699570180   -0.73492693020567
H          11.25483599509416   -0.84794404248361    0.54253748073128
H          13.08713290514881    1.15017934778255   -0.02736379391138
