18
         -36.878518531912          0.000366676959
N           1.36624543941917   -0.02758564800013    0.05733472866950
C           2.70643028408119    0.00070648658423   -0.07408716440431
S           3.70436607166904    1.20565458298135    0.73310246263868
C           5.07887457473839    0.28278565520281    0.04713258418638
N           4.68649755700145   -0.72360528998711   -0.67169456976348
N           3.38606395996601   -0.87138820032255   -0.75645302998154
N           6.28729440180684    0.82949609285739    0.14138639358121
N           7.33897691031693    0.12345714733249    0.13769210260179
C           8.52746241506055    0.76919143432911    0.01588540330658
C           9.78009703225407    0.12931594271469    0.22346909097425
C          10.70979682162577    1.09497932806782   -0.04749468435793
N           8.71703537130002    2.03893039165690   -0.36432874443636
N          10.02017824417796    2.20847047424974   -0.39766202440965
H          10.39802918894540    3.10042887680063   -0.68152817266547
H           0.89036935468695    0.79704249860052    0.37740713637410
H           0.86751447591798   -0.66197948029934   -0.54335145068669
H           9.93148555189420   -0.88210925285353    0.53374243895811
H          11.78041234513746    1.07756896008604   -0.02500250058421
