22
         -44.089694712403          0.000869656705
C           2.69397136320246   -0.96713749211533   -0.29463776560451
O           3.16405558467695    0.32318764562097    0.06643013594624
C           3.49385211402582    1.10502176116628   -0.94561157002757
S           4.11728632633442    2.71608561728275   -0.62072506034720
C           4.24473305385991    2.83365418832429   -2.40138769874338
N           3.82334844009176    1.76552637537443   -3.00592831057704
N           3.39606014327244    0.81310549952581   -2.19774649282061
N           4.50352324453820    4.02638667970587   -2.93083309079790
N           5.17098830483849    4.16957729821346   -3.99628104177321
C           5.20260521628826    5.39478044393847   -4.56541000889276
C           5.99659714580294    5.69985263319041   -5.69966488371953
C           5.72215780503584    7.01331310520043   -5.97749719434638
N           4.50357392233630    6.48525339554703   -4.19394708743784
N           4.82683385161306    7.41871216648092   -5.04372860958376
N           4.21893739632779    8.65264307308036   -4.99692273935176
H           2.44039858070570   -1.46261495588589    0.63976255013136
H           3.47078693138982   -1.52151828059890   -0.82591837292287
H           1.81656007849058   -0.88611728551499   -0.93972009978196
H           6.65694115930967    5.03207333653341   -6.21010543531890
H           6.07637314275739    7.67763988991648   -6.73809905944568
H           3.54354781875151    8.64504426625499   -4.23732789318348
H           4.89274837635053    9.40387063875710   -4.86910027140076
