32
         -59.524101157214          0.000395502928
C          -6.17332911633379   -1.73777709504293    0.89831789976688
N          -6.49344176651423   -0.45033284306238    0.65383303682764
C          -5.66302587209416   -0.03922601836866   -0.26937533570771
N          -4.80370284866438   -1.00901686453186   -0.64397470875551
H          -4.06577983415421   -0.97536176038026   -1.32865658804331
C          -5.11339214694541   -2.12177849177834    0.09839815600653
C          -4.39492062066107   -3.34189394081118   -0.03191735095636
S          -4.72655941606592   -4.76459851515275    0.94432975924507
C          -3.35783531649957   -5.49312613997803    0.06669573022294
N          -2.84671468735157   -4.68468006565561   -0.82413494146477
N          -3.42401361119439   -3.51479804192103   -0.87938041511255
N          -3.14787612241820   -6.79371073952933    0.20301867755864
N          -1.99649943994193   -7.32151621796552    0.18088117991191
C          -1.90286283871210   -8.66109291312204    0.08963989745378
N          -2.88781143882393   -9.52860582834593   -0.16811866908813
C          -0.66021734827259   -9.37149063958575    0.21395260753869
C           0.66314292333097   -9.02575773737653    0.46901899167590
C           1.59076740525318  -10.04259039398269    0.51258537419494
C           1.22621341413470  -11.38014559136088    0.31075744255372
C          -0.07660664579285  -11.74674931319253    0.05709104016544
C          -1.01805883118564  -10.72263844795139    0.01139859576171
N          -2.36647199430978  -10.73420396079155   -0.21514970879799
C          -3.18730079152992  -11.87557347199773   -0.49026991943441
H          -6.70610784592819   -2.32199536907302    1.62117395544764
H          -5.65740744965774    0.94853967566832   -0.68483945462255
H           0.93613952898232   -7.99430561387970    0.62143707450691
H           2.62750354042608   -9.81194386275286    0.70603400599966
H           1.99073536349271  -12.14114205373457    0.35556592268078
H          -0.35426413537210  -12.77761316842476   -0.09850491218388
H          -2.87175545316712  -12.35914561563003   -1.41699332467682
H          -4.21376494237929  -11.53016375378917   -0.59093514926705
H          -3.12133166164647  -12.59631520649736    0.32685113059406
