29
         -60.679365354549          0.000851888338
N           1.67677774945369   -0.11475526525633   -0.96470631396404
C           3.00776314794377   -0.15023621641728   -0.80200471620121
S           4.06960197586209    1.11401899847199   -1.39656049659756
C           5.37931324325759    0.12670976074613   -0.66596331538241
N           4.92136052657526   -0.93815632551348   -0.08617354440608
N           3.62744190365577   -1.09377650778718   -0.14621321920731
N           6.60161322824830    0.65460224309247   -0.67218258420201
N           7.61933273920960   -0.09577666402776   -0.47120410881470
C           8.79340154174748    0.55728984186526   -0.33586424053312
N           9.92528179413663   -0.12976973675004   -0.26728874568492
C           9.07630015889976    1.96790212541685   -0.20544993465789
C           8.42371606069263    3.19571619470295   -0.18295215498292
N           9.12038278126601    4.30726721219920   -0.03893305673459
C          10.44048996699698    4.22393701909141    0.09104721196156
N          11.18368092264677    3.13493176696092    0.09489943930770
C          10.48346571701546    2.02098891121569   -0.05797695764008
N          10.93232717267391    0.72714833163183   -0.10570984862793
C          12.23100779384713    0.27113964251665   -0.02042986264150
C          12.70897732662235   -1.01261085151796   -0.03567299950988
C          14.11191431769967   -0.88376483603607    0.07562948262391
C          14.36837648354597    0.45232615039594    0.14847062710643
O          13.22705119704676    1.16167156214067    0.09033405945985
H           1.26849062337933    0.54823908486557   -1.59842894727377
H           1.15578726203605   -0.93796411230297   -0.71458032937243
H           7.35116626315254    3.29007035596567   -0.28229913011150
H          10.96775447222455    5.16067429808483    0.20867961069748
H          12.12402766781726   -1.90394692476931   -0.11502758612240
H          14.82767283081312   -1.67898702706799    0.09787770629649
H          15.28077313153500    1.00635096808102    0.23953395521552
