27
         -60.633202096175          0.000421458870
F           1.45166198879560   -0.00833635570885    0.94560369751276
C           2.73956094954681   -0.01317379064919    0.70461299552889
S           3.84637431742759    0.92043443291381    1.69609409774947
C           5.08857074019368    0.21324367828340    0.63354609600362
N           4.58778357779399   -0.55337486191589   -0.29385702375181
N           3.28214395842136   -0.66982403664615   -0.25173683058016
N           6.32097762271758    0.70560023980651    0.70012934522384
N           7.36479652495579    0.00616194949681    0.53361302663064
C           8.52079689005439    0.68012722770623    0.37946604883061
N           9.66789068471161    0.01056376887831    0.32734567086366
C           8.78147661852149    2.08767612521571    0.19598417480639
C           8.10980506966313    3.30577088357793    0.13306170344420
N           8.78996942430518    4.41841631746990   -0.05942374573596
C          10.10907033040428    4.35177884971361   -0.19718963432801
N          10.86804829686468    3.27247632793292   -0.16496196366071
C          10.18480318694907    2.15480424036226    0.03447026784470
N          10.65370556204086    0.86705023355885    0.12639325624650
C          11.95994746349260    0.44580571557683    0.03096079806944
C          13.07325302563078    1.21462354440911   -0.17950440300358
C          14.24058064077587    0.43087426474835   -0.22119824006722
C          13.99348380838766   -0.89622420493573   -0.04401033136803
S          12.32612494721769   -1.23997889009355    0.18015080112888
H           7.03724160114358    3.39080415361220    0.23865114872943
H          10.62146208803520    5.29058245786250   -0.35549388787940
H          13.03660437122155    2.28155620418824   -0.29633436760121
H          15.22284395150675    0.83779728358913   -0.37685310791055
H          14.70046235922793   -1.70161575895698   -0.03187959272323
