20
         -44.843524009119          0.000694164863
C           2.91989895256244   -1.11666070477321   -0.43638632716315
O           2.99206345771066    0.21129771351359    0.06458085053024
C           3.43778844035958    1.11443022759574   -0.78350003240741
S           3.60106798653833    2.78306144409776   -0.26423050329470
C           4.22458967099334    3.05277056900759   -1.91540915239955
N           4.22296049458711    1.97206592910516   -2.63591925383564
N           3.77565260492869    0.90367544833552   -2.01419683784864
N           4.39943431627972    4.30883746858237   -2.32275142830113
N           5.27172244242541    4.61498950939804   -3.18468160499374
C           5.24451093321880    5.86783282746083   -3.69979452391084
C           6.25886812477080    6.38042135005568   -4.54931826715417
C           5.83870128847262    7.64318548229496   -4.88330791348412
N           4.26960988756225    6.78254288440482   -3.54323518353831
N           4.66224525694454    7.78740255232317   -4.24571182363804
F           3.88430114865044    8.90070064102849   -4.33235821340704
H           2.51433523635630   -1.71709022081578    0.37442807117702
H           3.91258256106375   -1.47185841558804   -0.71917887754128
H           2.26853790255958   -1.15785557329219   -1.31121868365000
H           7.15288398352303    5.87568093676823   -4.84701010825879
H           6.25542531049316    8.41532993049658   -5.49526018688118
