31
         -63.758523000729          0.000751134225
C           0.57301707601921   -0.90364778040520    1.20758411022118
N           0.64022761391568    0.42481422426457    0.98430135633019
C          -0.19466067703007    0.67160691581912    0.00786995952504
N          -0.81270200578083   -0.44693556764446   -0.42300357089301
H          -1.49574334660702   -0.55567670295664   -1.15536936999156
C          -0.33227834894752   -1.48383943699074    0.33844593689668
C          -0.77225575321215   -2.82328588208761    0.15490656115211
S          -0.20507272325522   -4.16736938980899    1.13204874845999
C          -1.33146602983296   -5.14782187151902    0.15770876103066
N          -1.94938161974307   -4.44134023429488   -0.75243476366685
N          -1.63228855622288   -3.17561893439150   -0.75563314271884
N          -1.25931375876437   -6.46491962920298    0.26290759465279
N          -2.26183659779411   -7.23293769694242    0.13163111972141
C          -2.04669439655182   -8.55073701716288    0.00425447408257
N          -0.87109968186869   -9.16292035361836   -0.21636963183135
C          -3.08830695308153   -9.53249432644540    0.04303664392489
C          -4.46790796234700   -9.64133058678810    0.22531406101060
N          -5.04545960608868  -10.81679660241362    0.20096507075185
C          -4.29345580304478  -11.92209070579862    0.00628881799654
N          -4.95426950723464  -13.09226231074093    0.03791494195716
H          -4.46625837103472  -13.93544643865917   -0.20199320845862
H          -5.95639381271904  -13.07188538906242    0.08556018843443
N          -2.97458975868256  -11.96251381071374   -0.18655717117021
C          -2.41666139716219  -10.75857913611082   -0.17077153245617
N          -1.10218095921144  -10.45110045777815   -0.32523739600263
N          -0.10364132315057  -11.32926212237406   -0.66701510936812
H           1.16454499252241   -1.37732626566714    1.96496657858478
H          -0.37274011840478    1.64318072401590   -0.40781992722027
H          -5.10506454917777   -8.78356512726257    0.38798123837550
H          -0.27093426301028  -12.23608399748386   -0.24289003426415
H           0.80012819750398  -10.93446408977547   -0.42781130506943
