23
         -51.712588298883          0.000953568822
N           3.77629416040523   -5.09826761619020    0.27680507272699
C           4.53954972251877   -4.26497759105711    0.08185721608128
C           5.48362022711162   -3.25533536815491   -0.12637694904247
S           6.80675509714310   -2.98272626142047    1.01280053155659
C           7.23047044767481   -1.63332206455527   -0.05421597194250
N           6.43471119723654   -1.54258016297881   -1.10077555909781
N           5.49582780925573   -2.43211008274094   -1.12720979388195
N           8.39172235367083   -1.03067477440735    0.11058964798119
N           8.60599685065282    0.20621927249546    0.01479246803673
C           9.86978688514164    0.65493465779849   -0.05511782376516
N          10.97920795531691   -0.08054387350531   -0.22637060101150
C          10.21902170878425    2.04887846450508   -0.01163156753709
C           9.52610545154881    3.24760377888986    0.13625054076973
C          10.25919023275573    4.41373807527911    0.12396315973829
C          11.65276623288199    4.41246160173668   -0.02801425132234
C          12.36628442485953    3.24410129816587   -0.17672479805693
C          11.62553104419425    2.06797750402509   -0.16672741388005
N          11.96033213230599    0.75729640674250   -0.28417012494788
F          13.22481261628192    0.29763650185560   -0.49005200720206
H           8.45477498550085    3.24567723073457    0.25106263293674
H           9.75256653238473    5.36024592940001    0.23322181024568
H          12.17797386964953    5.35487226134484   -0.02901433865319
H          13.43768806272562    3.23361481203692   -0.29540187973133
