31
         -60.598829968507          0.000844433611
C          -1.22499212372502   -0.35544308284071    0.00994109990415
C          -0.40179226718369    0.73422354356902    0.00577595823334
C           0.90615329495821    0.19954291454623    0.00463337965830
N           0.88262730715920   -1.10984388480323    0.00796314300908
N          -0.41124200654497   -1.45130046710965    0.01116612195271
C          -0.81124082706098   -2.75271598318445    0.01476904399050
S           0.32052833667410   -4.07351287095806    0.01871320517106
C          -1.13967770411155   -5.09764269499603    0.02186586478524
N          -2.23605674872573   -4.40404908512977    0.01918694157953
N          -2.06364177210510   -3.11052876902850    0.01526014226995
N          -0.95418827044816   -6.42904783679875    0.02274459184153
N          -2.00804665604202   -7.16173883416205    0.03213112796669
C          -1.80908758744251   -8.49678722054923    0.03034810809725
C          -2.87028986182892   -9.37992059520949    0.03660418974949
C          -0.59584706359599   -9.29814176978993    0.02356256746244
C           0.75994629090133   -8.99709276443872    0.01639523573933
C           1.65900239320038  -10.04732389935792    0.01225200243774
C           1.23258639114649  -11.37367775676862    0.01510624214114
C          -0.11273974006107  -11.69662568052938    0.02223687823460
C          -1.00754098940294  -10.64237942994719    0.02637018187922
N          -2.40512091595402  -10.66442669184432    0.03389453608299
C          -3.14470644414638  -11.76226936031634    0.03729675956634
N          -3.76975628010941  -12.72157706777739    0.04158183004347
H          -2.28879373377513   -0.46801640683162    0.01222076911756
H          -0.68043729862580    1.76726539462687    0.00377102894056
H           1.84035252481886    0.72420854551222    0.00150980055879
H          -3.92100624446899   -9.16268431394370    0.04207190073855
H           1.08696502246851   -7.97015578459251    0.01420563477016
H           2.71799765461129   -9.83856709766449    0.00669605451285
H           1.96508002039600  -12.16609208317080    0.01177721734415
H          -0.45269470097523  -12.72109896651161    0.02464844222142
