30
         -60.068895031866          0.000621347723
C           0.41515588505805   -0.77036282398506   -0.97707192528693
N           0.42636056447688    0.53812917238275   -0.65673391500485
C          -0.37074204294875    0.66751573228975    0.37337178185784
N          -0.91062266701863   -0.51009224449769    0.74529009800320
H          -1.55079727805137   -0.70735582542301    1.49781748561480
C          -0.41765388999836   -1.46123248603983   -0.11403485436224
C          -0.78150702951666   -2.83054653215990   -0.01338589123608
S          -0.20018652546467   -4.07259800382585   -1.10477934599420
C          -1.23399662259293   -5.17108288825742   -0.15776453610816
N          -1.84224910845945   -4.56023927712891    0.82635732376964
N          -1.58257546532202   -3.28818705658337    0.90859813715496
N          -1.10847642050284   -6.47552255711721   -0.35017309237070
N          -2.05699311396747   -7.29452472633569   -0.18226273932535
C          -1.77244851827005   -8.60899781022368   -0.10537880721590
N          -0.59502933868181   -9.14774875085201    0.21664800115643
C          -2.75353610731544   -9.64874090196066   -0.23161848382284
C          -4.10052238241961   -9.83444712101917   -0.52577337941203
N          -4.60883101585777  -11.05121225968476   -0.52886411371273
C          -3.81598197435436  -12.08356977902320   -0.25539652627262
N          -2.53064715932163  -12.05892725762986    0.03310772067336
C          -2.01934197033027  -10.83241695492724    0.03936451460818
N          -0.74408140344058  -10.45932218888376    0.30913769868418
C           0.34014601470817  -11.31942700641388    0.68205019159527
H           0.99134067515658   -1.15410553888831   -1.79499118406069
H          -0.57521117534784    1.59541899364580    0.86893528740426
H          -4.77081544793789   -9.01686095363472   -0.75148604236707
H          -4.28291706123791  -13.05884018596305   -0.27247119552308
H          -0.04214373094165  -12.33704985114747    0.72616502419902
H           0.73380858428911  -11.02032803523007    1.65415814040579
H           1.14114572561197  -11.24992488148410   -0.05523537304976
