25
         -50.194431425055          0.000891607586
N           1.49390080662413    0.11244535541670    0.11745310202658
C           2.83547358749304    0.08385458372887    0.06194338994384
S           3.81296821410206    1.53745977308859    0.07831415520440
C           5.20667578401870    0.40012117607908    0.05737156903215
N           4.82276817806928   -0.83335370444836    0.03856712830792
N           3.53035807335704   -1.02127911826510    0.03859247026990
N           6.41909054039604    0.96328939229507    0.05504335787390
N           7.45032035034667    0.20083447263204    0.05745559383491
C           8.63626038205720    0.85769596811686    0.04978807438421
C           8.92912347194538    2.25707555245362    0.03776117366090
C          10.28985111572198    2.32699959477921    0.03672516067552
N           9.77053310810329    0.15482469846292    0.05504183649627
N          10.75159447352726    1.04206692040888    0.04726991619271
C          12.06205851109215    0.61628545841529    0.05143312359817
C          13.27141775715804    1.27227749174438    0.04905395814450
N          14.27315378355355    0.36163894170684    0.05691294478487
C          13.70524075682051   -0.81265618164150    0.06292504990857
N          12.35546453153401   -0.71887111634188    0.06035571924076
H          11.65199472087739   -1.44131484721004    0.06428817077786
H           1.00858050798645    0.97495396315013   -0.05056261077353
H           1.00879577883492   -0.75640998093675   -0.02817173968886
H           8.21323802109001    3.05127238796624    0.03162723736497
H          10.96410820691067    3.15849245446018    0.02959594091545
H          13.47789834154254    2.32248442911687    0.04297542852715
H          14.23293099683777   -1.74432766517815    0.06962984929691
