27
         -57.232728609411          0.000857134548
H           1.25920845580217   -0.44748314410190   -1.10940809742104
C           2.28191306656199   -0.21005748043936   -0.89901511884204
S           3.15982230534278    0.97275137836452   -1.82072374786472
C           4.53120637788757    0.53205355756779   -0.77894475512128
N           4.20717767723100   -0.35972002241320    0.11745715536958
N           2.96261432987137   -0.75616885918255    0.04277483401519
N           5.62308458657620    1.28909204549285   -0.82295696638667
N           6.79388232598581    0.83017752731307   -0.66019080238303
C           7.77206074331384    1.74651276947999   -0.49344950160255
N           9.03730386302179    1.34828273404476   -0.43533637549185
C           7.70724634673788    3.17618442895638   -0.30991895816561
C           6.77882499866993    4.21199834627649   -0.25292993104783
N           7.19024199941582    5.44940771717686   -0.05926162403899
C           8.49128541352354    5.68045398006318    0.08465568358179
N           9.47277696159510    4.80025182152552    0.05843360256618
C           9.05916364608754    3.55897114599031   -0.14178409893696
N           9.80606578220364    2.40998172777360   -0.22881932521622
C          11.17487574933664    2.27796713212091   -0.12753243171388
C          11.95292654590494    1.15188646386692   -0.20202259206836
C          13.27819413401680    1.60878010019908   -0.02919342039435
C          13.19793221599145    2.95975048685970    0.13444951694218
O          11.92081892014729    3.37335173107962    0.07553826948824
H           5.71504229696811    4.05342382481908   -0.36341764581411
H           8.77853311944054    6.71073435471859    0.24257189889451
H          11.60618746688529    0.15251077758547   -0.35733827319649
H          14.16583661047349    1.01126876318857   -0.02720979282461
H          13.94547406100636    3.71035669167291    0.29466249767309
