32
         -59.522815445850          0.000933605328
C           1.56512515364721   -0.22788420895006    1.25297388138993
C           2.99975974234745   -0.14519789183360    0.90944982790475
S           4.15590211058709    0.73377728764544    1.90931684625172
C           5.36758277044089    0.16576443652502    0.74098862841628
N           4.84119194471139   -0.53203427133012   -0.22476701330405
N           3.54142375666271   -0.68762239086124   -0.12084050315738
N           6.58833421157459    0.68768401219563    0.80441189146817
N           7.64231404530839    0.02518511362659    0.55762244241546
C           8.78204264163054    0.73077551855433    0.41717332427450
N           9.93501452182868    0.07514643859029    0.32410926155477
C           9.02031801910992    2.14760133502687    0.27972091669423
C           8.21932844519386    3.28467432911270    0.28577877713278
C           8.83806818066340    4.50280513557731    0.10896708636560
C          10.22062647640854    4.59756703607380   -0.07970874351419
C          11.03239916427733    3.48344377917746   -0.09250700338786
C          10.41610323586248    2.25205332503108    0.09540359051261
N          10.90362873670194    0.96370367333335    0.14093069149295
C          12.19740202699025    0.49883308994278    0.04042487751934
C          13.43837665582701    1.08192796990734   -0.08985225136489
N          14.38505347583913    0.11615818470803   -0.12961453131105
C          13.75842863866573   -1.02315506585992   -0.02698200454341
N          12.42168111616638   -0.85083784232537    0.07967044937543
H          11.68319684669950   -1.53084984540905    0.17689273782506
H           1.13595886024462    0.76964964829182    1.34057675767123
H           1.43678849845813   -0.73566581800389    2.20880842154911
H           1.04516053857382   -0.78269588753637    0.47655064458902
H           7.15397261436361    3.20051932844871    0.42732163159347
H           8.24857402336612    5.40699687086891    0.11245385198206
H          10.66289107165933    5.57194488936775   -0.22225915036411
H          12.09415934884316    3.57001420610358   -0.24792444385595
H          13.71362527085247    2.11313564134350   -0.15323486528089
H          14.23319785649423   -1.98276802734255   -0.02577602789502
