26
         -49.889010426411          0.000567888888
N           1.55968229577529   -0.05696292665705   -1.13209584889308
C           2.89447392841570   -0.10016173461940   -0.94437115547805
S           3.97736677412038    1.10724844080996   -1.62877426429622
C           5.26643123660475    0.18429059478812   -0.78359006954510
N           4.79304288939065   -0.82173500818325   -0.12132662375426
N           3.49182302589056   -0.97851129866874   -0.19872332119655
N           6.48268312832747    0.72563445868095   -0.77207788828723
N           7.51467163764083   -0.00339270236526   -0.56840043359652
C           8.67428003318800    0.65697255344554   -0.39426956465231
N           9.80614296087043   -0.04304636758011   -0.27891331149799
C           8.96967977941975    2.06469343852967   -0.27407198583268
C           8.23866791984503    3.24877018565317   -0.31869442254543
C           8.92572276984986    4.43183048950255   -0.15618477951078
C          10.31045416857361    4.45890208657961    0.05402022449834
C          11.05706490036882    3.30308608458409    0.10469175298811
C          10.36536722737413    2.10838326112286   -0.06327147436867
N          10.78590731277990    0.80834217091668   -0.08370801844264
N          12.07461255122530    0.37056978349778    0.13635931230140
H           1.19978024415358    0.49742276738421   -1.88880282390800
H           1.04485618446579   -0.87958081884755   -0.86524013322921
H           7.17312423631526    3.22556059895945   -0.47966964264486
H           8.38851516809960    5.36787696641278   -0.18869822132834
H          10.80070522203442    5.41263483469377    0.18015595137182
H          12.12188339592111    3.31449503315340    0.27547795446408
H          12.68533693159965    0.60309320424551   -0.64576596390959
H          12.04403407775069   -0.63856609603831    0.25873475129387
