24
         -51.267027871882          0.000973445884
N           4.04530429091638   -5.29285404116701   -0.40254778870331
C           4.79615013852751   -4.44870887511316   -0.20464505312500
C           5.71958546759202   -3.42062439177855    0.00714603560805
S           6.87053684760900   -2.94085942965186   -1.24736903414936
C           7.37913095352829   -1.70839549681183   -0.07991569271943
N           6.72537734300049   -1.78866384718560    1.06276722853806
N           5.83480348917823   -2.72544216198346    1.09363789007996
N           8.48820348679349   -1.03690436912316   -0.30673482768350
N           8.68505500202400    0.19217142650428   -0.14378366135322
C           9.94849292466966    0.66103585597284   -0.15653896342608
N          11.06718090119796   -0.06008053396714   -0.03980906461584
C          10.28400711002917    2.05426514725251   -0.20938027774595
C           9.68912894237579    3.30930537071275   -0.32091521929925
N          10.44275177021319    4.38916309783500   -0.33241008598860
C          11.76391786956466    4.26129295748403   -0.23989950830529
N          12.45791851738125    3.14654620922867   -0.13215397521308
C          11.69898955884411    2.05720934127270   -0.11958346807594
N          12.09562920471702    0.76153431798891   -0.01227935348006
C          13.44123288297843    0.28969545863874    0.13034214542507
H           8.61985242549547    3.44866823685365   -0.39637677430165
H          12.33330677964403    5.18026854416422   -0.25542068191072
H          14.09132662075178    1.15677962228601    0.22642054734409
H          13.72672989030209   -0.29630720511942   -0.74464845662485
H          13.51782758266420   -0.34418523429203    1.01395803972246
