29
         -64.913299623119          0.000703956241
F           1.48326893792087    0.53191015925320    0.23128910659312
C           2.78237532909833    0.46775712590946    0.05949895527439
S           3.88727257571428    0.95907633518752    1.33307401388669
C           5.14314532763089    0.46533904656657    0.16895969461697
N           4.64778459974220    0.05053576640111   -0.96607911048715
N           3.33648868259272    0.06372305997336   -1.02082809810269
N           6.39860103986531    0.79414513668894    0.42776098139033
N           7.39995684713671    0.07233378750298    0.16564508039560
C           8.62807950436315    0.61746613685674    0.21032479317023
N           8.92161034748318    1.91865310604275    0.16974642449182
C           9.83867923860075   -0.15141344913203    0.19959728447812
C          10.26809392405775   -1.47820017004600    0.22959469460298
N          11.54818266863868   -1.75674578425034    0.21037845675316
C          12.44010004918679   -0.74469052527763    0.16703475310301
N          13.73361479779563   -1.09580075877857    0.15602091560417
H          14.43533478238160   -0.38077052526019    0.10235326963470
H          13.97430933907034   -2.06967684835326    0.15222083440766
N          12.16011801162589    0.56147113999492    0.14095928406470
C          10.86598684591504    0.81814765952890    0.15803098957088
N          10.24464824114227    2.04307160093789    0.13050308820186
C          10.82622161522284    3.28835986593970    0.05088941355692
C          10.23673267133944    4.52600120736056    0.01846083578804
C          11.30800552619577    5.44306378514433   -0.05881797063987
C          12.44862026260761    4.69730769945222   -0.06623527787007
O          12.16292251988674    3.38457123802177   -0.00001755490289
H           9.58272694556464   -2.31329154530417    0.26491198121209
H           9.18703117145360    4.72681644927810    0.04625435683717
H          11.23571560647459    6.50985660349682   -0.10197308823188
H          13.48410259129054    4.96828269686316   -0.11295810739922
