24
         -51.609839900300          0.000747680531
C          -1.22642118867560   -0.25986354148571   -0.23534303752889
C          -0.32020230685935    0.80711367038645   -0.09413276344377
C           0.88673654840541    0.24096678514370    0.20499389567104
O           0.79086249130335   -1.09115421374636    0.25738280670288
C          -0.49577618737877   -1.40768522225369   -0.01000102554716
C          -0.90320123882361   -2.77034951271378   -0.02213359790164
S           0.19423503023636   -4.09382725133863    0.33310884207692
C          -1.23241631480899   -5.12716487159874    0.12413381339920
N          -2.30246811836255   -4.44677419045596   -0.20675823425989
N          -2.11474852720481   -3.16606172542107   -0.29692464598663
N          -1.05245344933927   -6.44140458184045    0.07527669178794
N          -1.94239093219742   -7.26628533990007    0.42287105995980
C          -1.69230372954408   -8.58707057147759    0.21184245845186
C          -2.70296975337069   -9.59326541643657    0.31200522664265
C          -2.04940006815238  -10.76720690741035    0.10652178245589
N          -0.50882562228493   -9.13598713201050   -0.02878688340547
N          -0.72400045483950  -10.45013493930049   -0.08285703058578
C           0.25653972969785  -11.32797327181902   -0.27805080396472
N           1.07723839421762  -12.10702641638970   -0.44434502583202
H          -2.26937873033541   -0.21850930798264   -0.46926348456606
H          -0.53114071916588    1.85116916203659   -0.19958355456162
H           1.85069060262322    0.67079654205551    0.39476241148251
H          -3.74361015854800   -9.42609204954246    0.49060584888218
H          -2.38269529659198  -11.78509969649883    0.08480525007059
