31
         -63.246676012802          0.000466324546
C          -0.89709130416886    1.35178766314013    0.07505841891056
C           0.39557106881282    1.30581479341248   -0.21857357430289
S           1.34188979052457   -0.16206697522804   -0.44796903555188
C           0.06281209977010   -1.33528493126814   -0.16541605926237
C          -1.20087883442698   -1.04563039333663    0.12369138128317
N          -1.72565355169656    0.23870951308739    0.25268948373218
C          -3.02688520527549    0.44100029581307    0.55559701809986
S          -4.18548591530348   -0.85083292993976    0.81495816169727
C          -5.36023648122841    0.48171622853845    1.10011754099363
N          -4.80455857644295    1.64876065216169    0.98045067932677
N          -3.54037252929371    1.64352635087577    0.68739983069611
N          -6.59691539797975    0.11172975401363    1.41261124380645
N          -7.47681979740407    1.03885801945941    1.59195251526127
C          -8.71682487215520    0.64633503856971    1.91880175810954
N          -9.18384960413330   -0.60623929710355    2.04200955742833
C          -9.78506804110340    1.56977123375251    2.16803575646630
C         -10.04249766900169    2.93719843236640    2.20562572145657
N         -11.25846744434528    3.37037643894302    2.47469036758461
C         -12.22638103643474    2.48484107683657    2.70282634128883
N         -12.13273284509993    1.17118491162937    2.70748989293298
C         -10.90113111007371    0.73996538469138    2.44953530842057
N         -10.45951166811031   -0.53854581248817    2.35659227974671
N         -11.18472025547209   -1.67115014065453    2.63663325304221
H          -1.41521314729536    2.29010364229202    0.20248784537603
H           0.97267913793663    2.20505711228319   -0.33986631961499
H           0.39497247481493   -2.35481677109565   -0.24743785237855
H          -1.91921911735674   -1.83670765656613    0.28176668684143
H          -9.28025341517611    3.68009391500016    2.01714019769298
H         -13.20651971716934    2.89430883550265    2.90540989885384
H         -12.15487147736482   -1.54905036565106    2.36379059289984
H         -10.74460555834657   -2.47673401903459    2.20384110916218
