31
         -64.476171154154          0.000605448370
C           2.96513720740354   -0.92755343713951    0.46027004582000
O           2.34506319492272    0.34279565315851    0.61187708526560
C           2.95304022432054    1.18053103825400    1.42358338934260
S           2.25099142580360    2.76154799032205    1.71447616862402
C           3.64813452598402    2.98681707692592    2.80799382003129
N           4.44358949595605    1.96223848936135    2.82045497666747
N           4.06656669293389    0.96865676756399    2.04893827980255
N           3.84295031278830    4.20473636924142    3.31338792547970
N           4.47179039477593    4.37128488405931    4.40878328591187
C           4.77148985970577    5.65329826688179    4.71394137186353
N           5.33312824154847    5.93592177093821    5.88213037738470
C           4.61604707842703    6.86625690446911    3.94727611121400
C           4.13369039817196    7.30558538357068    2.71792126325208
N           4.18449282804382    8.58822824261454    2.41505540061387
C           4.70412191132238    9.43680527290883    3.29610066516753
N           5.19817592541378    9.16001723227657    4.48695615877554
C           5.14215116731827    7.87275025958144    4.79178696911003
N           5.55612289824678    7.24501041633792    5.93952122424841
C           6.13432646669640    7.80812085322257    7.05769363495445
C           6.55101519433423    7.21152512306206    8.21890649295421
C           7.06270974058517    8.26420830433341    9.00994227439460
C           6.91677641228299    9.40124831251328    8.27296395903421
O           6.35205829927249    9.13059143851808    7.08336775615788
H           2.35920462140912   -1.46686261809533   -0.26372576390055
H           2.98655255613486   -1.45722090053053    1.41447547040355
H           3.98827687780489   -0.81075721305411    0.09853274236993
H           3.70701579754278    6.63671496183428    1.98344329933678
H           4.72452125352127   10.47707817194937    3.00173529005243
H           6.49067493241320    6.16967866732367    8.45084315702483
H           7.48086479511369    8.18209052471173    9.99148973824468
H           7.16445926980134   10.42428579288550    8.47233743039918
