33
         -58.786431734159          0.000552137199
C          -1.10969593099165   -0.42531160555973   -0.59121102815720
C          -0.54942072230622    0.74919544595824   -1.11957610172258
C           0.31389259159457    0.50630545982521   -2.14366657767153
S           0.46526094920506   -1.16817624082349   -2.48683705075173
C          -0.66138665536576   -1.55867463152076   -1.22544309466979
C          -1.03775582358406   -2.90005644166800   -0.93670777153785
S          -0.42055426635997   -4.29562644569918   -1.82979948425825
C          -1.48398574649888   -5.24836863022076   -0.77229242076960
N          -2.12321171064214   -4.50766144940543    0.09636944242301
N          -1.86884781196108   -3.23107448800486    0.00191425164336
N          -1.35123512223031   -6.56575229583734   -0.76850094849956
N          -2.31022140494652   -7.38684666427094   -0.64276544712012
C          -2.00170191336665   -8.67625333416649   -0.40994755760333
C          -2.97480996186749   -9.66795347527988   -0.33950938165557
C          -0.73949412769323   -9.33616802529864   -0.16033779897353
C           0.57964192836798   -8.90464795980676   -0.09307861629788
C           1.55816863816049   -9.84124096259153    0.17428677862840
C           1.24343222585296  -11.18519899923328    0.37290438812031
C          -0.06095340345667  -11.63597780623855    0.31128468834989
C          -1.04732355820319  -10.69828344683658    0.04342072700281
N          -2.41381382642748  -10.85932951248395   -0.07361687338677
C          -3.10434498856966  -12.10806051457257    0.07363677014266
H          -1.81297136563942   -0.46418801135555    0.21937927993829
H          -0.77650650077773    1.73539947106348   -0.75638007217329
H           0.87470348537140    1.21277359178429   -2.72277000866167
H          -4.03404451428194   -9.55503134928003   -0.46937534994430
H           0.82116969694457   -7.86534032422646   -0.24762871857777
H           2.59075671716845   -9.53144420157115    0.23191619389586
H           2.03675409880926  -11.88775183464279    0.57967249409934
H          -0.29803287626800  -12.67753852512653    0.46630502669054
H          -2.76140507730200  -12.82311938317991   -0.67726785017835
H          -4.17328383996451  -11.94921353703708   -0.04992387269823
H          -2.91927918277311  -12.52892387269844    1.06409598437750
