23
         -47.089717332530          0.000420363888
H           1.15931096056931   -0.34163164824188    0.03024750955356
C           2.21214709594175   -0.14280244643333    0.03163427514461
S           2.84414668311661    1.46367776143511    0.02512204407451
C           4.43637190713425    0.66725765272538    0.03355135067625
N           4.33602538300741   -0.62504461319226    0.04083539056447
N           3.10644478623252   -1.07180749551277    0.04008407564864
N           5.51287706746277    1.47611950814360    0.03327797234637
N           6.66692703601713    0.92170249061452    0.03858655362781
C           7.71601053894070    1.77523329975693    0.03913864880502
C           7.75856036643647    3.20723173883460    0.03191098971679
C           9.08461116032383    3.51134864118747    0.03661847488277
N           8.95641949374860    1.28072499752208    0.04756491252686
N           9.76323013464697    2.32114507052439    0.04615992379975
C          11.13133683596003    2.15575731972231    0.05449623516283
C          11.88508378411792    1.01384969351760    0.06432597354842
C          13.22870876264920    1.45455758656655    0.07005512969938
C          13.18663799869401    2.81463247266795    0.06335995941966
O          11.91194427991440    3.25335442361445    0.05381047682971
H           6.91590182586044    3.86559675937921    0.02427394986818
H           9.61032319538666    4.44437298821826    0.03425110341958
H          11.51118414120822    0.01247560442878    0.06692584454312
H          14.10399853540597    0.83917165446156    0.07812364503649
H          13.95606802722482    3.56001654005951    0.06433556110523
