36
         -73.984735809740          0.000750275251
C          -0.69595863618631   -0.55829326899949    1.00980683607383
C          -0.02145836485634    0.55782567419975    0.60019696521389
C           0.74715456353809    0.13034686122287   -0.50343941130289
N           0.55748313161905   -1.14321893649844   -0.74744185047977
N          -0.31962480976258   -1.56394995890562    0.16987714259284
C          -0.74905103107787   -2.85685446592790    0.21051603127457
S          -0.22215880275913   -4.04145917504610   -0.96310058901916
C          -1.30016631196877   -5.14728844961682   -0.07121629485541
N          -1.87855785709018   -4.57288570979552    0.95156016213956
N          -1.56427201966595   -3.31501378941287    1.11007018792701
N          -1.23621330706098   -6.44340246036102   -0.33990361911752
N          -2.22608065785361   -7.22334460983529   -0.21732558554432
C          -2.01155646883772   -8.55082421938024   -0.21162831924695
N          -0.85657318512219   -9.16550152040639    0.04504904858412
C          -3.05531766955401   -9.52436144930335   -0.35783227673847
C          -4.42346433029340   -9.59965265688053   -0.61240967511057
N          -5.02276334188461  -10.76495623942718   -0.66156742226364
C          -4.29471995097050  -11.88405746375316   -0.46892955642716
N          -4.96150025945630  -13.04592441134663   -0.55017922539432
H          -4.47475743079912  -13.90083394929596   -0.35413060768376
H          -5.95656472400003  -13.02574191366274   -0.67496628291951
N          -2.98426120303095  -11.94874464871108   -0.21969985272658
C          -2.40287755633731  -10.76453234076717   -0.17173841016134
N          -1.08430829011299  -10.47826587507623    0.07710203914388
C          -0.06161700410780  -11.35567086372336    0.35955821900709
C           1.26179614893092  -11.10085888837467    0.60914774032792
C           1.84661151931768  -12.36797163255140    0.82921007110000
C           0.84315121927435  -13.27957014683010    0.69621501962502
O          -0.32234193485055  -12.67022564206797    0.41051562282088
H          -1.39427482916119   -0.74053871363323    1.79927014145872
H          -0.06276410944573    1.54062508347157    1.02120681534240
H           1.41842243249612    0.70362190274843   -1.11079397235137
H          -5.03722422454635   -8.72394937293169   -0.76987520054214
H           1.72713600220981  -10.13862233755843    0.62757071799634
H           2.87336931552939  -12.56869169762851    1.05438768371168
H           0.82669397787279  -14.34775271393544    0.77618770754803
