36
         -70.350555655294          0.000867961941
C          -5.07758779179315   -1.04800860835816    0.80977403288390
C          -6.02361249562637   -0.14657843013976    0.28633235731643
C          -6.63700264725928   -0.79895352016161   -0.74411291670868
O          -6.13979820808655   -2.03223161503329   -0.89351738863490
C          -5.18687188638648   -2.19316118518701    0.05080555907469
C          -4.46621920225186   -3.41762604846707    0.13572550661893
S          -4.72140624011812   -4.75462837885744   -0.97734581669882
C          -3.41319776824873   -5.55219037192767   -0.07344360903738
N          -2.97146720814079   -4.81775217596131    0.91859018100529
N          -3.55476392718544   -3.66159499621933    1.03230148125059
N          -3.17907538142819   -6.83398187453478   -0.30444116447813
N          -2.03083218661088   -7.35861052801383   -0.17015714504155
C          -1.93147644289488   -8.69953542764067   -0.15763825569886
N          -2.92492849962382   -9.58081851413053   -0.03827706558903
C          -0.67022824122907   -9.39114273264728   -0.19157767323189
C           0.66085067435691   -9.00320349641973   -0.29501163506011
C           1.61642635260599   -9.99565494997800   -0.29077198686139
C           1.26614743917877  -11.34648780881000   -0.18991070692202
C          -0.04710651058635  -11.75380569204542   -0.08721995552963
C          -1.01345211609908  -10.75495309111573   -0.08857247195328
N          -2.39023023830514  -10.79372522607994    0.00641612919750
C          -3.21415146936229  -11.88626815071547    0.14743721382156
C          -4.58032251472416  -11.93507287740504    0.24017100100349
C          -4.89729769541146  -13.30614477302902    0.37066085434100
C          -3.71446363347732  -13.97768681577298    0.34661137529274
O          -2.68066171842671  -13.12034610467928    0.21072743081831
H          -4.40112628615540   -0.90120589387659    1.62505553734531
H          -6.22307356884661    0.84895018180429    0.62591140847013
H          -7.41336917720407   -0.49862721617124   -1.41986482642026
H           0.91714404462437   -7.95902234781209   -0.36939102986097
H           2.66084117747623   -9.73290584532956   -0.36528207313307
H           2.04863059271189  -12.09031130032118   -0.19123238696228
H          -0.31098960468269  -12.79532600579374   -0.00905851339092
H          -5.24261272548100  -11.09648353067922    0.21545214709311
H          -5.87467199791894  -13.73056681939656    0.46889453623248
H          -3.47430289738941  -15.01946782909100    0.41343986944642
