29
         -64.509739749302          0.000680691827
C           0.62762204257303   -0.84014211595074    0.96570716482265
N           0.66149082107498    0.48720550893618    0.73980255035183
C          -0.24736278101510    0.72481031524364   -0.17163054635969
N          -0.88267071054209   -0.39976871618898   -0.55626187123177
H          -1.61721851194683   -0.51408555228290   -1.23589599876201
C          -0.33461275236130   -1.43172335528376    0.16523001123483
C          -0.77125981246236   -2.77502714451724    0.01817183798750
S          -0.11407611137648   -4.11294487206931    0.93751584690770
C          -1.31111231810196   -5.10006277215695    0.06381918405927
N          -2.01084324502519   -4.39743549596354   -0.78972214985072
N          -1.70494268516590   -3.13424686631900   -0.82091179090576
N          -1.22825812841836   -6.41849929322255    0.16738267587587
N          -2.23089656566582   -7.18174466870034    0.06221489297321
C          -2.03096481914468   -8.50261389144706   -0.10061903473641
N          -0.92483421580231   -9.08431497122812   -0.57246251674953
C          -3.04550696865529   -9.49547242699621    0.10181827991184
C          -4.36463965726534   -9.61295475647597    0.54396261258952
N          -4.95076823674730  -10.78314215462771    0.57159500202403
C          -4.26492056743512  -11.87739341928821    0.17446851189263
N          -4.92225671700196  -13.04198875205289    0.23833268346336
H          -4.46554799579851  -13.88165273176684   -0.06738128837335
H          -5.87947845135650  -13.04527235800863    0.53937084070742
N          -3.00389386817729  -11.90681505205638   -0.26558055894843
C          -2.43569027958607  -10.71609132622604   -0.28737924874732
N          -1.18721122014193  -10.36357177979412   -0.66671209546481
F          -0.25273954301928  -11.18750172566198   -1.21504537624844
H           1.27991721606578   -1.30682462453999    1.67563184229976
H          -0.46612229419078    1.69475109551031   -0.57053148195379
H          -4.94703162330972   -8.76233609686458    0.86872002123175
