32
         -63.863037615960          0.000316292547
C           1.46135204108259    0.27037937638948    0.16876381646393
C           2.92910701907020    0.24589514405688    0.00134115556354
S           4.02983099053599    0.78712736447860    1.26389395334096
C           5.31777046592141    0.31898899146935    0.13376449666300
N           4.84784716313144   -0.12437890937358   -1.00048120798836
N           3.53911148146784   -0.15025080904428   -1.06012055042268
N           6.56251969101073    0.67801333921295    0.42122971690108
N           7.57234259882536   -0.01689457910651    0.11003322213431
C           8.79547998012961    0.53943380261744    0.18541617841125
N           9.07626627690995    1.84155730668789    0.15753513350228
C          10.01304289421255   -0.21922749447355    0.17929936090762
C          10.45251496707503   -1.54143641922851    0.19798848861529
N          11.73591251452359   -1.81116921615357    0.18933186852359
C          12.61831572773288   -0.79098643754985    0.16893472050387
N          13.91645035856488   -1.13111331822801    0.17491677469771
H          14.61128882705688   -0.40939022991870    0.12527549967886
H          14.16524999850816   -2.10240913563274    0.15163853709080
N          12.32944709085284    0.51252368070517    0.15188201930000
C          11.03249011958128    0.76013825638980    0.15714893136633
N          10.40329219260772    1.97816678158630    0.13108890537515
C          10.97506533846098    3.22865188061017    0.05634684832022
C          10.37823744310858    4.46186131941134    0.02843902092192
C          11.44420037869710    5.38639616174933   -0.04815332252492
C          12.58901648925066    4.64866471895631   -0.05954157185701
O          12.31114122240654    3.33314179380723    0.00345083651151
H           1.10093476737010    1.29862343290873    0.18246051021006
H           1.18014759818883   -0.19806039685133    1.10992852996503
H           0.99829536670784   -0.25836581125920   -0.65957185957880
H           9.77359967932282   -2.38248066821183    0.21386768316275
H           9.32750608663661    4.65628128934829    0.05885574745289
H          11.36488981898362    6.45287433760605   -0.08848779865780
H          13.62284341206409    4.92548444704040   -0.10717564455332
