33
         -63.562574109286          0.000565799307
C          -0.86880962458512    1.27826535681137    0.08219263628755
C           0.42176266144617    1.17286827328269   -0.20411291300379
S           1.31653597126475   -0.33668599906085   -0.36063004979387
C          -0.00098252129281   -1.44955208595071   -0.01680767559981
C          -1.25402696631162   -1.10258073381611    0.25415057227768
N          -1.73638570532252    0.20390338809448    0.31017031409963
C          -3.03220543047325    0.46588662901725    0.58619990340234
S          -4.22987736125734   -0.77329569577227    0.91930044179167
C          -5.36545168310387    0.60919014564919    1.10944510550788
N          -4.77875787142098    1.74751668369715    0.91550189985212
N          -3.51267321101383    1.68707054163077    0.62904834534384
N          -6.62832705579222    0.29428996188977    1.39086241978919
N          -7.46484112315449    1.25345604857569    1.59031834723668
C          -8.73513287174298    0.87433229682145    1.85693261599858
C          -9.73383500158232    1.79728066425264    2.08239723792547
C          -9.34363998269453   -0.44082992035142    1.97932661014044
C          -8.86529117166388   -1.74015982424590    1.86762898265019
C          -9.75469300565042   -2.78075311532715    2.05836131510204
C         -11.09597573733805   -2.54887027236585    2.35494951137320
C         -11.59451274982591   -1.26378315123295    2.47091519112075
C         -10.70037131930997   -0.22628359728786    2.27896092095143
N         -10.91644424945514    1.15209247042002    2.33511033453988
C         -12.07808723047174    1.72783699654204    2.59219489352043
N         -13.09148274056333    2.21318663307763    2.81590618248759
H          -1.35488387292555    2.23861909268268    0.16213194956779
H           1.03105398079915    2.04410850776397   -0.36500461152858
H           0.29714863405120   -2.48248612273835   -0.04227096195561
H          -1.99777871657356   -1.86001589922725    0.45391450860795
H          -9.67112951809446    2.86810001121888    2.07513826121154
H          -7.82716745790500   -1.91717713290185    1.63848321184305
H          -9.40539349405513   -3.79908413528318    1.97661075217347
H         -11.76004613909024   -3.38763810748391    2.49770221024351
H         -12.63187743486012   -1.07389790837664    2.70106153681976
