22
         -47.253678712302          0.000625679693
F           1.47055710686995    0.08104354074839   -0.06912171435817
C           2.78025728833376    0.03489983349299   -0.07119900542495
S           3.73763998808879    1.49148516123606   -0.08002119617382
C           5.11427308362815    0.35950086367271   -0.07736604589582
N           4.74095492688862   -0.88230051020962   -0.07003379971093
N           3.44396466735553   -1.06732666346218   -0.06650964123983
N           6.33956378255134    0.90985380861536   -0.07980552284152
N           7.33947326436398    0.10797622425523   -0.08428000968165
C           8.56956368847886    0.65110141738514   -0.08496204153321
N           8.89014209494133    1.95022629066905   -0.08576406441239
C           9.77163058897348   -0.14136656159327   -0.08688460839001
C          10.06428736157222   -1.50121791183236   -0.08668327716639
C          11.39303843399333   -1.86605894160835   -0.08892070928097
C          12.41950304764259   -0.91277266500934   -0.09132567802086
C          12.15410574375857    0.43895498018057   -0.09143442146411
C          10.81409531372914    0.81110446202255   -0.08903635981950
N          10.20236945648051    2.03324491694408   -0.08843985751324
H          10.64270150362605    2.94192891658952   -0.09024828521888
H           9.26913346795959   -2.22859263262354   -0.08482577941829
H          11.65866161769837   -2.91229972366066   -0.08886791453823
H          13.44494299382135   -1.25019038177736   -0.09311326598297
H          12.94338057924445    1.17444557596502   -0.09323680191427
