19
         -41.396958379211          0.000556120037
N           1.41606604076974    0.16860132340656    0.05561277119717
C           2.75162601415464    0.11871529131029    0.03684760856666
S           3.76255720406607    1.54632014544434    0.04360363606111
C           5.12853180883938    0.37691308403600    0.03053931989693
N           4.71390847376071   -0.84858006953212    0.02249044749566
N           3.42409036073781   -1.00665630232928    0.02521134028067
N           6.35884166628475    0.89929719693129    0.03022875859813
N           7.35778399915282    0.09966067986981    0.02295931158948
C           8.57186828097757    0.71375732698173    0.02298370198098
C           8.91087589520260    2.11117038914508    0.02732412400341
C          10.26701573615617    2.13894468402383    0.02475515217303
N           9.66707918949483   -0.02909240537238    0.01813373098343
N          10.68847695975091    0.82620466355668    0.01921231685101
C          11.95848562729620    0.43282211117706    0.01533798599257
N          13.06330261138255    0.13650798466222    0.01311382984349
H           0.93013773631229    1.04507825116749    0.01673137088055
H           0.90505897925252   -0.69576298967394    0.01545312212892
H           8.22171031577930    2.92895083783118    0.03148695196550
H          10.97408310062916    2.94444779736420    0.02625451951132
