29
         -64.572328266440          0.000445815009
F           1.44879965765229    0.44999879675558   -0.11046625816737
C           2.74823080504433    0.37728910736903    0.05286555121560
S           3.84725522110208    0.98990602106570   -1.17204454179155
C           5.10792949972558    0.40073470917508   -0.05911161585369
N           4.61836445556059   -0.11926902341969    1.03367643056696
N           3.30708116549540   -0.12147682284652    1.09085722829618
N           6.36416341004505    0.75304526905117   -0.29194379019296
N           7.35930060642770    0.00534154476803   -0.06338135737212
C           8.59077551477949    0.54108691751237   -0.07406433480580
N           8.90006278492372    1.84064319651509   -0.02148113297018
C           9.79364601458907   -0.23911803585916   -0.05366052044787
C          10.21024000356668   -1.57096728835015   -0.07840546440269
N          11.48672266620572   -1.86070049248236   -0.04652575675645
C          12.39002631169442   -0.85855849479216    0.00688437875967
N          13.67794656920734   -1.22721928661375    0.02662697455715
H          14.39298799915143   -0.52579145936235    0.08320171838733
H          13.90384933725007   -2.20470612790357    0.02207841201786
N          12.12378709961304    0.45097492090932    0.03779481022265
C          10.83033512001566    0.71813042969445    0.00647506468138
N          10.22441327186779    1.94703572340875    0.03275943670156
C          10.83266299412973    3.17530719195213    0.12006180610506
C          12.15556040070298    3.55167367025637    0.19567962880630
N          12.22829512527989    4.89992333091354    0.25962341072851
C          11.00024654046891    5.34114165621337    0.22545314324458
N          10.10269350989157    4.33105206468308    0.13928804650674
H           9.09610106633878    4.36631910093928    0.09864653320119
H           9.51688909136569   -2.39898768374816   -0.11916818041842
H          13.02341367889635    2.92702930717081    0.20536667649396
H          10.72272007900944    6.37486175702566    0.25997370268519
