36
         -72.669227195391          0.000653066758
C          -1.75707325051342    4.34006201385125    0.00431490832366
C          -0.68402261091610    5.05317065237349   -0.31162489281496
S          -0.62335900975410    6.80814900809952   -0.44135528403484
C          -2.29509100734784    7.15229140506772   -0.02211999406158
C          -3.22153747519266    6.24477809413310    0.26613359274299
N          -3.02188005633448    4.86596688695793    0.28785211264101
C          -4.03009054271871    4.01379878081837    0.57414724071623
S          -5.67562449102308    4.52204945190521    0.91459433843698
C          -6.01069776670013    2.76346792677253    1.07544997704394
N          -4.94216086911228    2.04644079941843    0.88847877795595
N          -3.85971327527967    2.71154672864341    0.62745731908990
N          -7.23317388239425    2.43420785943551    1.46592943722934
N          -7.60767421618074    1.20763469300031    1.39419934197025
C          -8.85175243122085    0.92207735712793    1.81952327726545
N          -9.83957107564949    1.77714567614773    2.06959977233272
C          -9.33557462099706   -0.42309782977514    1.97479187130612
C          -8.88730509045735   -1.73535315043713    1.88403878014340
N          -9.71751145277098   -2.73192565188824    2.12878716005654
C         -10.97206411330409   -2.45193874230128    2.46501487146418
N         -11.52880611986751   -1.26316319092735    2.59290961093126
C         -10.69375186609926   -0.26187697529153    2.34356382904069
N         -10.93585066216659    1.08262082625993    2.37202951857050
C         -12.12618081980912    1.71793846873010    2.64004875925869
C         -13.33133356718280    1.14782517811764    2.94318289252982
C         -14.32562027598738    2.12239766267210    3.15689109586158
C         -13.86184145600966    3.39249441992594    3.01362652988430
S         -12.18993371317806    3.44750372748045    2.61231735531645
H          -1.72239904430538    3.26286512394549    0.06534597634420
H           0.25955592678379    4.58026269915420   -0.51777038735451
H          -2.52499299616845    8.20290252779164   -0.01583134956434
H          -4.22735558422143    6.55236372997087    0.51211598054875
H          -7.87166599316358   -1.98829181528669    1.61357281763346
H         -11.61432091344617   -3.30058979267714    2.65771194743772
H         -13.47776719758860    0.08585814958517    3.00569732070282
H         -15.34381603771780    1.88512172538391    3.40632130012534
H         -14.40454244200433    4.31038557581192    3.11968419492718
