25
         -53.860194622182          0.000516723908
C          -0.87826405126682    1.27699704319323   -0.23083210806609
C           0.42029221225014    1.21533697276148   -0.49410316696047
S           1.44237096978377   -0.20239101943252   -0.27228041929895
C           0.19345269399278   -1.34052798649455    0.21559062862633
C          -1.08515528839889   -1.04200402426269    0.41686407515714
N          -1.65144977219860    0.22201178648199    0.26565282782159
C          -2.94949436681085    0.45274995116059    0.56192109009899
S          -4.03046898875813   -0.76538661300312    1.22697862425939
C          -5.25057209590961    0.55166151777456    1.21902319257207
N          -4.76701056085039    1.66398237221882    0.74615374822002
N          -3.52373625564734    1.61621705259781    0.37190375258201
N          -6.50052046110217    0.21173421843614    1.49025987648425
N          -7.35285722359385    1.07905482892969    1.87075077069941
C          -8.64961228817952    0.69789993709955    1.92445733733434
C          -9.67110746471561    1.49998710438281    2.49757078124967
C         -10.82914469680885    0.78752201904108    2.31434782852934
N          -9.17992008013923   -0.43217696446435    1.42060001285760
N         -10.44049744331416   -0.33002174648009    1.67442743735123
F         -11.29861438860705   -1.30794634500341    1.26440657746705
H          -1.44646384284120    2.18116554432072   -0.38888981960341
H           0.95324531003577    2.06568279425003   -0.88052620967401
H           0.55799315250626   -2.34426579787178    0.34188804501427
H          -1.78439848708994   -1.80962278034597    0.71484623962034
H          -9.54118727651355    2.44901752133074    2.97186144417257
H         -11.85111930582071    0.97197261338006    2.57073743348667
