30
         -60.599881216095          0.000812171166
C          -1.23205408931381   -0.26199149881791   -0.00164067179632
C          -0.32814368893575    0.81701179333163   -0.00304280411620
C           0.92028341637984    0.26355942933247    0.00247957766634
O           0.85202236553090   -1.07205071564920    0.00642104415056
C          -0.45827896324371   -1.40245474070731    0.00441197717667
C          -0.85189020226658   -2.77102711724117    0.00814588596418
S           0.29093546232610   -4.09586966287312    0.02174342768792
C          -1.15000197106567   -5.13614527628435    0.01986569380804
N          -2.25566542194176   -4.45134845073429    0.00752968722179
N          -2.09748669683591   -3.15998141057820    0.00143093929646
N          -0.94583726569520   -6.46338252535860    0.02128885741738
N          -1.99435915318616   -7.20939394076568    0.04001190657551
C          -1.78961735168212   -8.53927444680945    0.03518385298658
C          -2.85517097369045   -9.43436680260189    0.05100355818690
C          -0.58027647925257   -9.33906945057547    0.01798795958191
C           0.77762811826345   -9.04096462060151   -0.00039918668183
C           1.67722950300934  -10.08894959182915   -0.01104097085435
C           1.25383535817513  -11.41850182467050   -0.00390056166282
C          -0.08785055953330  -11.74543783842252    0.01421243794317
C          -0.98822066898731  -10.69248454282382    0.02499077227208
N          -2.35644869296900  -10.67772633271679    0.04395842370635
F          -3.13327969030891  -11.80404384427925    0.05485096284835
H          -2.30123747706579   -0.23259679710972   -0.00449074881636
H          -0.56871662213339    1.86015883902566   -0.00736672664656
H           1.89776917557810    0.70437015330904    0.00332886441500
H          -3.90764512500849   -9.23419717579931    0.06519685949639
H           1.10277428879363   -8.01342399916618   -0.00557823426096
H           2.73605688219287   -9.87939151988635   -0.02528860584442
H           1.98976249046583  -12.20790157501879   -0.01270187833413
H          -0.42510596759943  -12.77029451367831    0.02017770061234
