23
         -55.772119796944          0.000673955819
F           1.37584488295441    0.28829087401027    0.01063027575095
C           2.67870227357523    0.17211405629503   -0.02298849038133
S           3.71806840182035    1.53234692140865    0.36417184803266
C           5.02529834945158    0.36663039154002    0.08208042764805
N           4.59420690496994   -0.81097952208412   -0.27730893459326
N           3.28947464129693   -0.90908739268626   -0.34115620795287
N           6.27416837521788    0.82449187819548    0.00838989156059
N           7.27112160367217    0.14799243792882    0.36734441474194
C           8.51074804082638    0.65157513617840    0.16326500797521
N           8.82246513737249    1.93384257935673    0.08005692267101
C           9.69828078241229   -0.15553996263944    0.14731665133522
C          10.08887832274113   -1.49518962221578    0.18357278942529
N          11.35853331559878   -1.81011300387824    0.12717261875881
C          12.27957611537432   -0.82952485894649    0.02324572060632
N          13.55779679056971   -1.21620652541638   -0.03211035028357
H          14.27919078298469   -0.52193467707729   -0.10637027643127
H          13.77324006336576   -2.19567502077618    0.00703134079069
N          12.03288612995994    0.48605383116257   -0.03172944636930
C          10.75182702072209    0.77698628072135    0.03112593084587
N          10.16571208916229    2.02544883705267    0.01441278574813
C          10.80255809320190    3.19146316362316   -0.01726265436043
N          11.36560696834958    4.18603155779472   -0.05235566342404
H           9.38090491439991   -2.30801735954774    0.26186539790530
