32
         -59.502122820234          0.000429569885
C           0.32564405851841   -0.95674657206275    1.91063035110436
N           0.29862004193067    0.38530974668137    1.76451593636457
C          -0.63025738863395    0.63470590175846    0.87870806690793
N          -1.21900782839393   -0.49452238333133    0.43304730202546
H          -1.95577117355519   -0.60440743456647   -0.24477697837174
C          -0.61680403469801   -1.54082762074463    1.08716104387546
C          -0.99879744121301   -2.89177744993103    0.85487626112511
S          -0.28727521523551   -4.25504937829735    1.70818662563270
C          -1.42426004090544   -5.24282405099658    0.75218797676357
N          -2.14592476789106   -4.52595454041545   -0.06471191214234
N          -1.90420589530067   -3.24013859366074   -0.00721663012211
N          -1.27222755666743   -6.55973641570749    0.76645153364236
N          -2.24249226564205   -7.37873481658780    0.66918654688226
C          -1.94563227737427   -8.67027465282783    0.45175596191068
C          -2.93600667202600   -9.64936152746714    0.36634472668180
C          -0.69028546563458   -9.35128456721375    0.23131491234292
C           0.63773840399954   -8.94226996307881    0.18998406909938
C           1.60718478468276   -9.89713120823381   -0.04215707793164
C           1.27859573860475  -11.24034561499923   -0.22930154547871
C          -0.03257737889429  -11.67177139329939   -0.19289350059802
C          -1.00805914471299  -10.71311576133539    0.03873089568036
N          -2.37980939898415  -10.84317273500189    0.11648268696477
N          -3.04159629865843  -12.06089399996696    0.03703262272335
H           1.00721448940209   -1.43422597363925    2.58545458508365
H          -0.89972671991210    1.61501989584843    0.53963158717671
H          -3.99630326565625   -9.52389854587954    0.47522480918597
H           0.89070137552016   -7.90495082204107    0.33864606311282
H           2.64543165016723   -9.60355607524631   -0.07784264226331
H           2.06694894835429  -11.95692147738970   -0.40340706263357
H          -0.28567347685651  -12.71261101103222   -0.32402056334498
H          -2.77925961796639  -12.55791964021858   -0.81111462454135
H          -4.04577616637507  -11.91335131912153    0.05954797314755
