30
         -60.389238404061          0.000669261615
C          -0.97123128685397   -0.43272117789187   -0.66755142138808
C          -0.30219445982604    0.68529514084589   -0.25288276112748
C           0.60274579514314    0.22216275469703    0.72555108512092
N           0.49471688693341   -1.07326697196939    0.89464965159718
N          -0.46126871046313   -1.47321375877213    0.04971860919835
C          -0.83839760215338   -2.78100119887842   -0.03144888420523
S          -0.12347972172932   -4.00437556493130    0.99657375043412
C          -1.25509826953948   -5.10820474677224    0.17213705979258
N          -1.97374897981824   -4.50812505924909   -0.73870892988836
N          -1.73309571849666   -3.22686483235269   -0.85475251956404
N          -1.09822723339591   -6.41217918331145    0.35102536860582
N          -2.04847865123113   -7.24232949504374    0.38128693237290
C          -1.73935992516422   -8.56041281820939    0.34768860472121
C          -2.71366698296192   -9.58830050387469    0.49743693149121
C          -2.01231027664615  -10.75149624569303    0.37611024678036
N          -0.53025063386265   -9.09780230031115    0.14453562972877
N          -0.70763866042792  -10.40268170950311    0.16350457174988
C           0.35601727334870  -11.26093750094608   -0.01623110113707
C           1.68369746607363  -10.99537046260339   -0.21247818504710
C           2.30356803786631  -12.26123209712258   -0.32740853018737
C           1.31471938962111  -13.18620223786285   -0.19306403122965
O           0.12234469175476  -12.58709318762345   -0.00260157248434
H          -1.74588992361733   -0.59438175311514   -1.38679943315340
H          -0.43210308522984    1.69151336007263   -0.59289223398908
H           1.31341119065160    0.78458319000331    1.29708643532703
H          -3.75951942593975   -9.44961919127664    0.66898144974900
H          -2.30941196934203  -11.77913066016256    0.41731874631337
H           2.13226410038208  -10.02642700617254   -0.26370066953582
H           3.34419556183597  -12.45177428993142   -0.48752436526591
H           1.32205112308722  -14.25726049203949   -0.21185043477970
