20
         -40.676297876887          0.000760885812
C           2.79879022451192   -1.03079675588012    0.45485785721902
O           2.87190595093076    0.28185450795623   -0.08283027213209
C           3.31912863511318    1.20792719345135    0.74354115854541
S           3.48437923469621    2.86210342575426    0.17398518562250
C           4.10438368278742    3.18029352700284    1.81967317128456
N           4.10185185668589    2.12143539062769    2.57117964813682
N           3.65390139851619    1.03281941193736    1.97745800957544
N           4.26019596098073    4.44715289794503    2.19617998583150
N           5.16494646622201    4.81749297590856    2.99320503002277
C           5.09943929697112    6.08308205566414    3.48291542969836
C           6.14919844460319    6.67537897596396    4.23668304835583
C           5.67378124618726    7.91182487883166    4.57674140074119
N           4.06395516456023    6.92771267764831    3.39374299273699
N           4.42693287800684    8.00399719307234    4.05132631998680
H           3.78460893437042    8.77921522423981    4.12796057365683
H           2.38974064743343   -1.65290830726673   -0.33788275116377
H           2.14969246000595   -1.04700741139207    1.33263021914325
H           3.79170250889866   -1.38066182753067    0.74461387233441
H           7.09412156757334    6.23158763877553    4.46534189620958
H           6.10979344094373    8.71141632729089    5.14007722419490
