38
         -76.122763153596          0.000898545122
C          -0.91314483879860    1.23864862548197    0.08249665318224
C           0.38665862418133    1.13366152149270   -0.15878378467628
S           1.29835405419145   -0.37331259341049   -0.21853548464705
C          -0.03297416825967   -1.48695223335484    0.06900577581332
C          -1.29513735721594   -1.13957741670725    0.29291206949419
N          -1.77769163210374    0.16702046978838    0.33136971759934
C          -3.07533759576413    0.43128869425701    0.60364104925505
S          -4.26589541752560   -0.80298557686441    0.98745620815996
C          -5.40060751751358    0.57723684985864    1.15505126895215
N          -4.82362938213748    1.71574741229321    0.91143025423537
N          -3.56328393089130    1.64899112598132    0.60037077678091
N          -6.67544734356698    0.27463899338957    1.36882803364996
N          -7.47966810381523    1.20421594670932    1.73755839103644
C          -8.77245051974208    0.87783825886668    1.91169224855536
N          -9.29659225542190   -0.34076002268041    2.01306710841796
C          -9.79940365539312    1.85997476930391    2.12166027336760
C          -9.96025141277991    3.24212916462240    2.15277957561799
N         -11.14137205050182    3.76419357599319    2.38868229398347
C         -12.18836113243706    2.94085051554790    2.59206503523996
N         -13.37053857863548    3.53963665507669    2.81695843877788
H         -14.18089099857825    2.98102220633240    3.00800744923279
H         -13.40417803166976    4.54089632990997    2.85711336576354
N         -12.17064274882037    1.60542627632030    2.58595297090912
C         -10.96916033426335    1.10088698262300    2.34790965150238
N         -10.59871089464822   -0.21473768670101    2.28204545499184
C         -11.38699865346228   -1.32056858314202    2.48905233428446
C         -12.72200891360333   -1.35649854196429    2.78122964384060
C         -13.18713996311412   -2.67822907474030    2.92628917197128
C         -12.21045284124176   -3.60585082328630    2.74378815424996
S         -10.68252803641653   -2.89833233429574    2.38630232086598
H          -1.41022747771875    2.19649349432427    0.10552646969221
H           0.99362720620063    2.00207293280470   -0.34239816269538
H           0.26600425991959   -2.51974619671607    0.04881383759425
H          -2.04804754848523   -1.89569066113628    0.46063411125707
H          -9.14068526330778    3.92828318944460    1.99288750424629
H         -13.31872243760849   -0.46983886942927    2.88192210307982
H         -14.20748396903059   -2.92534648833238    3.15763573071965
H         -12.29304914002002   -4.67280688766056    2.79802198569803
