30
         -59.099149790863          0.000485036690
C          -0.91325802106826   -0.42721207625629   -0.65241984071000
C          -0.37058657128119    0.82289321487028   -0.31735238267234
C           0.54719007331385    0.74616484424461    0.68655830146286
S           0.77084789051078   -0.85841779460228    1.24765911929998
C          -0.39720965207539   -1.45027346629159    0.10828739654835
C          -0.74585612880714   -2.82605515089197    0.02430909106081
S          -0.07068643060429   -4.07271918180469    1.07368378748502
C          -1.16337688634385   -5.17586040762343    0.21411292291698
N          -1.84554471835246   -4.57206226268911   -0.72788384394779
N          -1.60552258781597   -3.29842536613110   -0.82983456182106
N          -1.02217960966192   -6.47860006205980    0.40434094628603
N          -1.98321617232971   -7.29870428709845    0.38525846523550
C          -1.69675684206144   -8.62050312610526    0.35673220701795
C          -2.69415433672118   -9.62876218343295    0.48766204178769
C          -2.01392983392970  -10.80454650899149    0.37078102089379
N          -0.49700981231769   -9.18230064333985    0.16745849681324
N          -0.70035478376512  -10.48438592891644    0.17649167343133
C           0.35117104390498  -11.35848652475111    0.00379397240709
C           1.66446241777486  -11.02766421334433   -0.17885763522542
C           2.48237808026513  -12.16667919143708   -0.31634831198778
C           1.78848810302387  -13.33130823648319   -0.23650673451507
S           0.10582951670118  -13.07672497695470    0.00918545255833
H          -1.65138729275384   -0.59729214532450   -1.41382244535749
H          -0.64718378646198    1.74351302543785   -0.79874037512255
H           1.10841011607642    1.54212885934733    1.13459021929847
H          -3.73899419310370   -9.46931767707211    0.64665456184757
H          -2.33869333925053  -11.82482104938316    0.40398174784512
H           2.00471478310525  -10.00994786091537   -0.20956773827280
H           3.54528862609305  -12.11994306622014   -0.46760718041144
H           2.15680034793396  -14.33511655577864   -0.30600037415188
