29
         -60.347772538811          0.000788816180
H           0.92294596514970    0.01750381884481   -0.17287281172509
C           1.96214018282346    0.22869918365575   -0.02557914145505
S           2.92092852039468    1.01840079008967   -1.24458543622651
C           4.26406768167414    0.80418825493545   -0.09884363742886
N           3.87963930493156    0.24230945900025    1.01688347685106
N           2.60616544139521   -0.06296501084371    1.04442639341429
N           5.40855811413943    1.42730544427659   -0.34247663949650
N           6.54539598749657    0.93545131802094   -0.08283515123717
C           7.62180609959795    1.74111022746717   -0.10995092720318
N           7.62229635521013    3.07543760826913   -0.06783922008907
C           8.97193400824522    1.25907672126310   -0.08401788482008
C           9.68294852852393    0.05904909537054   -0.09359012329163
N          10.99234592919108    0.06990547479625   -0.05746224506144
C          11.64006910887726    1.25362989396604   -0.01592737319328
N          12.97919989130690    1.19033317145064    0.00497087878373
H          13.51338781671074    2.03744740699279    0.06152323155377
H          13.42177238051108    0.29032130173766    0.02328172036061
N          11.08117195891835    2.46704632778608    0.00093159222251
C           9.76031167705515    2.43047277699682   -0.03303212486945
N           8.88909371864739    3.48589324750784   -0.01513348732723
C           9.19228275752523    4.82308291530630    0.07464864417631
C          10.38744462365898    5.50246003874794    0.14553523203259
N          10.13782795250614    6.82984449002352    0.21848726459581
C           8.84018115660847    6.96620304242577    0.19393588316438
N           8.20843474469792    5.77158315328078    0.10561727527735
H           7.22259371639680    5.56459588659789    0.06887858747368
H           9.19838725288553   -0.90656416982704   -0.12438531005055
H          11.37932033411688    5.10301213746008    0.14640080874495
H           8.32423879080473    7.90354599440349    0.23789052482439
