37
         -70.096347434506          0.000734243574
C          -1.16491893141232   -0.35301547635865   -0.50708778193904
C          -0.43781049826985    0.68289867094651   -1.12494198148408
C           0.40376987136863    0.07739781860313   -2.01171501237790
O           0.24884075270750   -1.25231231638549   -1.98675291114909
C          -0.70720670826509   -1.52323536179134   -1.07101344745072
C          -1.09472618425253   -2.87115130523701   -0.82364169713065
S          -0.38817816426298   -4.23446795372580   -1.68959344426021
C          -1.51346090582888   -5.22219821277372   -0.73123185410383
N          -2.22776079965112   -4.50746709088087    0.09939461367833
N          -1.98874664046224   -3.22608240343090    0.04711426625875
N          -1.36564124108354   -6.53992362763301   -0.74962693129863
N          -2.33403181832383   -7.35639784433616   -0.64510674447969
C          -2.03058119149857   -8.65391110162912   -0.43955966323158
C          -3.00663999139516   -9.63370079622677   -0.37255144027709
C          -0.76591401944223   -9.32596185147248   -0.22610509104580
C           0.54996521729014   -8.88461338431413   -0.18142876438413
C           1.54282459903840   -9.81683020993120    0.04704477855306
C           1.23777686883095  -11.16325513569051    0.23096387005764
C          -0.06548836680506  -11.62343956246269    0.18950541988226
C          -1.06545429737615  -10.69203883974896   -0.04351439434390
N          -2.44771819583699  -10.84727247038924   -0.13726859913082
C          -3.17025319616780  -12.01603490879291   -0.00178549636511
C          -4.52418787581768  -12.21701523378586    0.07405440642764
C          -4.69634058542977  -13.61563031776009    0.19931961006244
C          -3.44971190166144  -14.15554864338427    0.19053566966040
O          -2.51569592719849  -13.19026401460843    0.06794888785734
H          -1.92050577459486   -0.27610504841298    0.24579231168152
H          -0.52543498195116    1.73319165409269   -0.93739659168484
H           1.13182304307075    0.47226011670467   -2.69240578307159
H          -4.06477283573301   -9.50957980556683   -0.48576930175487
H           0.77679165508129   -7.84029681934166   -0.32306068312621
H           2.57419039064761   -9.50033916991478    0.08571007130932
H           2.03706159445846  -11.86659106144109    0.40994758543578
H          -0.28636125783282  -12.66786778205416    0.33302325095895
H          -5.29578484550612  -11.47700115515738    0.05284091948107
H          -5.62545731298493  -14.13920680232575    0.28528367796437
H          -3.09809954345251  -15.16457255338676    0.26228827481828
