39
         -72.347023701077          0.000906389330
C          -0.91403248458537    1.33646977724712    0.10038797922699
C           0.37944630058665    1.26748083518363   -0.18205286913331
S           1.31891716545822   -0.21823580589142   -0.32478084376293
C           0.03284678896258   -1.36651469681966    0.03341054920546
C          -1.23038464497024   -1.05305193636722    0.29574978986594
N          -1.75104329329537    0.23920719134702    0.33255192146041
C          -3.05759210974933    0.46869701522842    0.59862015432557
S          -4.22808414901673   -0.80494759257010    0.90451902804223
C          -5.40208642487831    0.54670753833106    1.08774615101337
N          -4.84267820000528    1.70031535733296    0.91599290857575
N          -3.56636611759973    1.67415879532229    0.64847381597589
N          -6.65765146745569    0.19709994595569    1.36850677939953
N          -7.52403539813291    1.14440270369533    1.51014005299836
C          -8.78103743376046    0.76064306769209    1.80220280230120
C          -9.80180433549155    1.68456816043800    1.95910003791308
C          -9.37737480356406   -0.53972539504405    2.02959262040935
C          -8.87676380901854   -1.83581476897025    2.02747317721424
C          -9.74342946160208   -2.87057177719066    2.31782078008504
C         -11.08258649035437   -2.62957847311871    2.62031885915311
C         -11.60172443459447   -1.34882314595642    2.62667716821779
C         -10.73939404515606   -0.30993854259144    2.31402676955603
N         -10.96967698569094    1.05891819881633    2.25619811130225
C         -12.17771304249378    1.69537333008379    2.47379925369061
C         -13.47773440853951    1.34118086700487    2.20489197285303
N         -14.31456433131953    2.32713150138952    2.61078916305024
C         -13.56337422775378    3.26235701897838    3.11332929979418
N         -12.24696975236895    2.93679275520053    3.05723604687481
H         -11.46572423566179    3.48015557361342    3.38658052151901
H          -1.42857789702944    2.28240943863098    0.17182054356713
H           0.96425842437837    2.15423406483093   -0.34887246009648
H           0.36391647550203   -2.38952756707545    0.02404812506005
H          -1.95229338403920   -1.82865295842990    0.50573474751689
H          -9.73918914876898    2.74884722544301    1.83807578027617
H          -7.83654877736410   -2.01176676885483    1.80646946246937
H          -9.37986299848793   -3.88727590334844    2.32016105200453
H         -11.72908957391119   -3.46088867179186    2.85819067830609
H         -12.63431871530418   -1.16760186456545    2.87866035156921
H         -13.85441421960154    0.46107700566492    1.72757295211140
H         -13.92183435332201    4.18491850115110    3.52169676608696
