24
         -54.639195956162          0.000860731004
N           1.49776823520011    0.26142155744714    0.02901215735662
C           2.83579377230787    0.19873052926291   -0.02612436804510
S           3.85773964078573    1.62260495760568    0.02333388573483
C           5.21258755008676    0.44870060807343   -0.00125972193979
N           4.79500193811370   -0.77770734827333   -0.06143947664889
N           3.49946316579544   -0.92578267178227   -0.08880331260285
N           6.44258024421778    0.95431176052560   -0.09217646332327
N           7.44328686425468    0.19759267640529    0.13626736603939
C           8.67723047830571    0.72533519709922    0.01077573833485
N           9.00079566114151    2.01882031413449   -0.02628853091147
C           9.87227991921116   -0.06763882987051   -0.00191199909109
C          10.27516262727904   -1.40373169706191    0.00770856486073
N          11.54825809198896   -1.71093300955103   -0.01572862466069
C          12.46589365383243   -0.72057488937590   -0.05645515100483
N          13.74935449875572   -1.10596063890548   -0.08058359517898
H          14.47101637546725   -0.40907371093695   -0.09581964548597
H          13.96451894906633   -2.08529859242353   -0.05555885122216
N          12.21995586630059    0.59171224633095   -0.07867289335961
C          10.93066064030024    0.87643088216361   -0.05143206607186
N          10.31079502900927    2.07573149866799   -0.06608646637481
F          10.91821664965306    3.29598730926228   -0.01182052056264
H           1.02883108480229    1.14113491611529   -0.08633969156878
H           0.98346158402365   -0.59303127004249   -0.09812075553356
H           9.56960748010060   -2.22198179487071    0.03830442125999
