29
         -60.030217758852          0.000983507491
C          -1.08789571348989   -0.41852482706090   -0.51280424735567
C          -0.46837850760010    0.81021735810057   -0.24102588054028
C           0.65504718064909    0.67615378074752    0.51849415048742
S           0.98313069013214   -0.95706198515862    0.92089842070955
C          -0.42369137169894   -1.48372131510283    0.05048480714961
C          -0.79556989318977   -2.85297496885925   -0.03257656936008
S           0.06388848502612   -4.15399007361460    0.78325787903522
C          -1.18337618285909   -5.21083047075370    0.09305130809110
N          -2.03738607246926   -4.55370989196848   -0.65340523158454
N          -1.81560079359163   -3.27744569781981   -0.72541038200962
N          -1.01569767291339   -6.52173946315242    0.18086842810310
N          -1.98829633206140   -7.33628392370513    0.18603722104889
C          -1.72759298994616   -8.64648417834707    0.02620743110402
N          -0.56007947991779   -9.20292722310527   -0.32455537488097
C          -2.72683488863772   -9.67112349917557    0.16173221267263
C          -4.08025770519386   -9.70758888282691    0.48749914935400
C          -4.70043639548078  -10.93707502230574    0.50691583595938
C          -4.00857041564513  -12.12062502032570    0.21406329453015
C          -2.67089906185409  -12.11812566229176   -0.11193869184185
C          -2.04621525386044  -10.87634198872745   -0.13354443175446
N          -0.77810096756906  -10.47780709761986   -0.40450022446917
F           0.23594780229418  -11.31263175930208   -0.77731036982063
H          -1.98224572297048   -0.54485088055305   -1.09376407257833
H          -0.83746847823746    1.75694774347193   -0.59266843443801
H           1.31487369897149    1.44563490897951    0.86824214998147
H          -4.60854771638853   -8.79509701332499    0.70961395965790
H          -5.74956790547069  -10.99957004073951    0.75242542827060
H          -4.54228301262988  -13.05811053393051    0.24463487083052
H          -2.13137532339730  -13.02334237152833   -0.34039263635175
