24
         -50.642474657652          0.000825650959
N           1.47503692034927    0.03797195596977    0.12959165388734
C           2.81431239833547    0.00001641752147    0.07324343053689
S           3.80811121447833    1.44163403181290    0.08032605101231
C           5.18946712990700    0.28844687113374    0.05404567531146
N           4.79039261132856   -0.94048016936968    0.04106316499583
N           3.49804048017935   -1.11378893155160    0.04977940385079
N           6.41019642009524    0.83245990051629    0.04763005458955
N           7.42372622621808    0.04281893897486    0.03708315653186
C           8.62558228102787    0.65535496928029    0.03008652224381
N           9.72737262715865   -0.09404208528775    0.02117852843155
C           8.99269723432373    2.05532597188841    0.03196221787022
C           8.31514051776101    3.27199209619909    0.03954244762049
C           9.06841998690215    4.42625900543868    0.03871444343055
C          10.46859118592450    4.39734066789323    0.03070564504552
C          11.16834741489200    3.21084882473839    0.02306107198204
C          10.40756600198563    2.04845970611179    0.02368691693406
N          10.73087405591561    0.73035943773968    0.01774469515297
F          12.00074479346938    0.23889738599202    0.00879346578982
H           0.98870380527077    0.90479595017961   -0.00969032749265
H           0.97970990353157   -0.82913414176595    0.01163634563647
H           7.23766854167216    3.29268081494481    0.04572004579292
H           8.57144256940904    5.38452287203125    0.04435178980997
H          11.01095252220330    5.33050417902545    0.03071601165536
H          12.24616315766134    3.17700533058325    0.01704758938087
