29
         -60.573345831991          0.000869529747
F           1.59969416136922   -0.25460390332779   -0.97874559444770
C           2.88668849815324   -0.21661406281149   -0.72687311949973
S           3.96512959571273    0.77502309130747   -1.69431701802959
C           5.22673964718839    0.09772847263136   -0.63180542350045
N           4.74742937212458   -0.70351200779364    0.27670147953183
N           3.44546592093251   -0.86926949466377    0.22050504276397
N           6.43767341471190    0.63874009741233   -0.67988224788178
N           7.51091854530312   -0.02085257036149   -0.52755267789323
C           8.64249247760539    0.68602219300178   -0.35909461300838
N           9.79892296851949    0.02939109660049   -0.28796572452956
C           8.88162670163110    2.10005928636369   -0.19192400686909
C           8.08165885140925    3.23754915734768   -0.17452339447090
C           8.70329917630584    4.45211710243873    0.01860331473513
C          10.08729518735186    4.54310376098434    0.19659872036361
C          10.89847450622685    3.42815204305864    0.18401213368584
C          10.27876093824360    2.20083517126560   -0.01697638109174
N          10.76500799154659    0.91125699348458   -0.08872093220878
C          12.05735188440395    0.44380049923345    0.01361693894828
C          13.29762877945740    1.02418993464750    0.17007778632024
N          14.24260983386728    0.05826291371875    0.20295806903714
C          13.61693509895129   -1.07934673166583    0.07206226161229
N          12.28233330804601   -0.90533808822370   -0.04790996386548
H          11.54577476984883   -1.58459095533401   -0.16402230824340
H           7.01537043624491    3.15741854011564   -0.30989374568952
H           8.11440338360349    5.35630421473946    0.03564955319250
H          10.53187614234858    5.51464385338189    0.34933864826016
H          11.96198616605362    3.51227714626306    0.32690219638798
H          13.57269752829269    2.05379948818345    0.25626904948950
H          14.09245471454842   -2.03854724199743    0.05948195690113
