17
         -42.170896886087          0.000577484450
F           1.52885779702121    0.07124696978313   -0.00742075518276
C           2.83442646775534    0.01403380174196   -0.00647543146399
S           3.80387396981048    1.46091482617851   -0.01380826866305
C           5.16834318813880    0.31835735847464   -0.00720312444929
N           4.78634494605632   -0.91999085060274   -0.00046068122300
N           3.49258408268205   -1.09401881850872   -0.00000012446920
N           6.40492194021665    0.85390986469405   -0.00795035691985
N           7.39649958583177    0.05186791684207   -0.00620363633958
C           8.61704854799974    0.64710314666030   -0.00591793330590
C           8.98107863737089    2.03804860564389   -0.01037140610162
C          10.33789756662404    2.03983020771352   -0.00826642040196
N           9.70175406204816   -0.11554488900634   -0.00145931065678
N          10.73240673243208    0.71826115307992   -0.00269338928687
C          11.99868839401774    0.30329048486363    0.00156675920388
N          13.09875908103582   -0.00680167012860    0.00412180649546
H           8.30615303215570    2.86751628232797   -0.01465761454643
H          11.06033196880321    2.83138561024278   -0.01002011268907
