32
         -59.504294444296          0.000738705642
C          -4.79008082142533   -0.92703928984426   -0.70425288874826
C          -5.68733478267310   -0.01735157593082   -0.21610931627782
C          -6.34921300346122   -0.69031665444960    0.83200316872746
N          -5.89323709544529   -1.91176127427479    0.97246339176767
N          -4.94576259398377   -2.05699843940760    0.04057539257518
C          -4.25029256200699   -3.22341536571584   -0.09103628420573
S          -4.51727865776994   -4.57274649068315    0.99374912706697
C          -3.22884576495292   -5.36123380656551    0.04688411475422
N          -2.78420846081713   -4.61131498290692   -0.92652275471158
N          -3.35851796701356   -3.43633675203422   -1.00422244041320
N          -3.02266959033766   -6.65797344451474    0.22325838894012
N          -1.88611135757696   -7.20925876398835    0.16082570037946
C          -1.82352321245825   -8.55216646852657    0.09896600935650
N          -2.83376328786314   -9.39373502239081   -0.14798315731978
C          -0.60121904617184   -9.29651930526165    0.22595540284208
C           0.73242305397267   -8.98874895502485    0.47614928544950
C           1.62924342233504  -10.03267062642652    0.52825098204964
C           1.22478950260750  -11.36073551587089    0.34077628212658
C          -0.08882670694010  -11.69029967159230    0.09211620709683
C          -0.99895440669598  -10.63876465258378    0.03736706408639
N          -2.34738812939594  -10.61343697541041   -0.18860969039447
C          -3.19952839171874  -11.73117217600991   -0.46496758215282
H          -4.06778617359036   -0.88777200003039   -1.49243609591295
H          -5.85426796029545    0.98478129267383   -0.55255253221394
H          -7.12749726606219   -0.32704489292910    1.47269899239757
H           1.03770922488346   -7.96482860108399    0.61789336481431
H           2.67275199933176   -9.83117051239857    0.71757862287015
H           1.96612729261677  -12.14389135696256    0.39294863523826
H          -0.39840090247323  -12.71373400519415   -0.05145749201553
H          -2.87575640679230  -12.24241256300505   -1.37327658004609
H          -4.21010336676397  -11.35270603058241   -0.59965517647914
H          -3.18127658106169  -12.43792512107511    0.36646185835305
