28
         -61.750842109926          0.000740168089
C          -1.32524047920787   -0.29097266965948   -0.00999762535798
C          -0.43634433433927    0.79847265802448   -0.01694717735462
C           0.82035115553858    0.26136165677685    0.01654128614615
O           0.77036018930536   -1.07293305984434    0.04535293754715
C          -0.53553759255821   -1.42220900994089    0.02878181226124
C          -0.90255588560649   -2.79484591711262    0.04624494118612
S           0.27002121515340   -4.09527622128305    0.08964547344979
C          -1.14173833542624   -5.16295256535565    0.01632771930395
N          -2.27219728104196   -4.50313546727928    0.00681414985091
N          -2.14029782519801   -3.21529212809039    0.03612988940113
N          -0.94958501881566   -6.47156215131932    0.18289673623836
N          -1.79170580056514   -7.30916848103164   -0.24378760080232
C          -1.59596143131166   -8.62727698089729   -0.03912695988570
N          -0.42962334316706   -9.24476099889870   -0.03405248914152
C          -2.66859840041807   -9.58988554998349    0.00397041276092
C          -4.05789382409790   -9.64090353037118    0.02640769706626
N          -4.66704014586193  -10.81018103492800    0.07743125484138
C          -3.93638415906487  -11.91708728968259    0.11795028887702
N          -2.61903905057313  -12.01183902355053    0.10912050753515
C          -2.01097545607257  -10.84050705973979    0.05082438224048
N          -0.66210204673881  -10.57709644700371    0.00522078296063
C           0.32184666424251  -11.47017345182731   -0.03845313027527
N           1.16171583049294  -12.24514313018801   -0.06602544701896
H          -2.39462666801977   -0.27535201686185   -0.02801697791499
H          -0.68971885024219    1.83800800109429   -0.04323244893928
H           1.79156801569436    0.71594357943570    0.02242296090345
H          -4.67840084668722   -8.75620924112187   -0.00382210040688
H          -4.47989629541292  -12.85030246936027    0.16431872452727
