30
         -60.044073694959          0.000871146366
C          -1.23712976555767   -0.38306406616390    0.01363801321922
C          -0.42178256497936    0.71258070523731    0.03479972215218
C           0.88939591248226    0.18705617595026    0.06651800115297
N           0.87480356493793   -1.12242495787093    0.06540979277603
N          -0.41617178194401   -1.47320844864508    0.03305021711042
C          -0.80161648910772   -2.77949578976512    0.02377300719444
S           0.34761331229121   -4.08327825210296    0.04929264126625
C          -1.09767652665290   -5.12997340983145    0.01627476286098
N          -2.20318781004271   -4.45020729764579   -0.00758787808134
N          -2.04965622878375   -3.15436108678647   -0.00361403744168
N          -0.88221713406374   -6.45583160658443    0.02744961229389
N          -1.91310893922353   -7.21537274596213   -0.00708650431758
C          -1.69586902033815   -8.54711915725669    0.00905613709846
C          -2.75653090240140   -9.49850602004375   -0.01621891900210
C          -2.13852854768071  -10.71422003505536    0.00899244625590
N          -0.51562198310603   -9.18195987351296    0.04687946249415
N          -0.79581858714361  -10.47056510730968    0.04573881855509
C           0.22558431334999  -11.39459554243940    0.07838577906186
C           0.25826519159005  -12.77087496807587    0.08817342979896
N           1.54539990199747  -13.18533014876598    0.12467546298102
C           2.28170929496305  -12.10806997985342    0.13662156844029
N           1.52940969163013  -10.98442024402286    0.10975203748716
H           1.80639661935298  -10.01472008489500    0.11084584413846
H          -2.29992998944379   -0.50239617833209   -0.01278532039727
H          -0.70714512873332    1.74380893262910    0.02869108094898
H           1.81994309140108    0.71773889622994    0.09019422318250
H          -3.80113299991329   -9.27473156804173   -0.04714972613518
H          -2.52194719186169  -11.71326765780194    0.00369866431631
H          -0.54955480164764  -13.47280999515555    0.07183791654974
H           3.35211549862880  -12.10289048812612    0.16442374403989
