36
         -73.643898459581          0.000972668519
C          -0.61148968987388   -0.51839029012442   -0.55335275356355
C           0.02284938337618    0.56933978284360   -0.02137668301430
C           0.68972103859849    0.07591180996774    1.12145994397431
N           0.47958181315214   -1.20864632649761    1.27444228854238
N          -0.31146781112058   -1.57228802884821    0.25873828462863
C          -0.73523912071798   -2.85897158757548    0.11073206447222
S          -0.32331480443722   -4.10090197887152    1.27019239360645
C          -1.31233909423921   -5.15748912929003    0.22572352801568
N          -1.78752519343050   -4.53198017287859   -0.81825629814836
N          -1.46010843434342   -3.26874530354512   -0.88446090209233
N          -1.28110786856219   -6.46447589120605    0.44787244822234
N          -2.26160925657883   -7.22618543847007    0.18208650991202
C          -2.05530912595207   -8.55510255347675    0.18276471541884
N          -0.87586896002209   -9.18038063187867    0.16424145525374
C          -3.11189261225313   -9.52196491687297    0.10999711432484
C          -4.50478387424859   -9.58836644385556    0.08215843875505
N          -5.10714314970226  -10.74948246642397    0.00672663387410
C          -4.36318235834405  -11.87486363769789   -0.03949507845955
N          -5.04443929922973  -13.02775361999302   -0.11090966212080
H          -4.54395077590919  -13.89550608382474   -0.16366086659649
H          -6.04654638133762  -12.99820602417338   -0.14228948752770
N          -3.02939058559922  -11.94953898790616   -0.01917569125442
C          -2.44459841857850  -10.76633673206576    0.05505203402002
N          -1.10438424393680  -10.49092924988820    0.08416821473996
C          -0.06081986852944  -11.38309101750803    0.03006380204989
C          -0.01402543666794  -12.75620804179841   -0.05571283268906
N           1.27862207654323  -13.15466997409570   -0.07076524048968
C           2.00244051973046  -12.07117952085877    0.00260804578130
N           1.23700477428217  -10.95575512503092    0.06721093625688
H           1.51279223921056   -9.98829655462393    0.13153380679645
H          -1.23622192038696   -0.65188198720757   -1.41195832770846
H           0.01914484969150    1.57498788905569   -0.38747317880187
H           1.30371271470248    0.61025630270951    1.81845410694444
H          -5.13179862669431   -8.70864763420781    0.11584783095631
H          -0.82942128021575  -13.44627336948496   -0.10430572267162
H           3.07312878162238  -12.05181706439994    0.01158812859265
