36
         -73.160681037053          0.000605673761
C          -0.69178507686332   -0.54729643653434    1.01544822947046
C          -0.00911931085305    0.56201563450988    0.60025942987422
C           0.74315165845783    0.12762842033582   -0.51226155024005
N           0.53662958977784   -1.14346856371139   -0.75652382960125
N          -0.33550997669455   -1.55565266974806    0.16963005732316
C          -0.77691727813434   -2.84462495182437    0.21056723056528
S          -0.26108936460807   -4.03024031589688   -0.96566207310890
C          -1.34621408881332   -5.12983353234623   -0.07444327623912
N          -1.91845192494919   -4.55295909119153    0.95059103901405
N          -1.59410125375359   -3.29775962275920    1.11105277219058
N          -1.29059593758447   -6.42472262644965   -0.34721230941014
N          -2.28158041707191   -7.20288594936141   -0.21919951933780
C          -2.06742480826241   -8.52952662123544   -0.21605215834799
N          -0.91270307854767   -9.14671052124992    0.03351391542452
C          -3.11074426210054   -9.50486883665239   -0.35624556708264
C          -4.48002937668417   -9.57907097614255   -0.60396741978678
N          -5.08012893174590  -10.74395741359299   -0.64995729398464
C          -4.35272371520400  -11.86306210637308   -0.45989691167579
N          -5.02765350318764  -13.02126946008174   -0.52858822587539
H          -4.54990750310816  -13.88645419581346   -0.35863596281367
H          -6.01992421668034  -12.99400722723220   -0.67284444474412
N          -3.04011294450408  -11.93015912575008   -0.21954071737399
C          -2.45593482783224  -10.74355988946196   -0.17479354967984
N          -1.13743070937794  -10.45643948184627    0.06615950854579
C          -0.12180218096974  -11.34029346321380    0.33996777496141
C          -0.18977760370994  -12.70482439085434    0.40394509672101
C           1.06262492781921  -13.27257523866706    0.70638402341236
C           2.04153045018594  -12.34139880910683    0.86333389678782
S           1.47052592425839  -10.73399360748440    0.64658050650782
H          -1.38374805850764   -0.72248069934406    1.81253772660323
H          -0.03491394510646    1.54473874886911    1.02316744021962
H           1.41456659816669    0.69413183071950   -1.12599911060000
H          -5.09363706538053   -8.70305065333513   -0.76000593365747
H          -1.09920224596915  -13.25074570391488    0.23883023234676
H           1.22672687766579  -14.33042396446301    0.80285787707382
H           3.07503757987580  -12.50252848879728    1.09603309652265
