18
         -36.846697953679          0.000676000056
H           1.12107844806083   -0.22552729468689    0.39451177804464
C           2.15371425145194   -0.01121189981095    0.21028030862664
S           3.02271768795939    1.17901679856481    1.14232627009304
C           4.41892871573211    0.69903356769871    0.15093265163958
N           4.11201455341599   -0.20628762659135   -0.73615044090374
N           2.85549416790820   -0.58575345827151   -0.69308067331524
N           5.51665685305508    1.44637370951013    0.20042429197718
N           6.69419827607228    0.99447257402935    0.23433260033647
C           7.69747516283776    1.88706283940496    0.06866514756493
C           7.68333248728728    3.26299524577455   -0.29521775231008
C           9.00280557604506    3.62092231928798   -0.34891408903531
N           8.96527224962848    1.47413372655773    0.23049798654128
N           9.71266110117384    2.51109599644672   -0.02201733068409
N          11.08287596877864    2.40561141718132   -0.02180957255706
H           6.81894068331635    3.86225733184115   -0.48905118366899
H           9.48821629933999    4.54562096736680   -0.58397995835160
H          11.32841749288967    1.44206272642044    0.18783267297620
H          11.51575002504700    3.04064105927602    0.64411729302619
