30
         -64.845186752152          0.000786278317
C          -1.18827441699609   -0.34120604451981    0.03278297235113
C          -0.33141856119540    0.72188882173319    0.01432932876211
C           0.95997250574771    0.14750610321987    0.03961252824449
N           0.89578001166465   -1.15965249020980    0.07095633576984
N          -0.40846670261338   -1.46163656447848    0.06632591070953
C          -0.83682436625482   -2.75241671643709    0.08534918894633
S           0.28262998313945   -4.09219751605413    0.06979113271316
C          -1.18473825953186   -5.09162062178630    0.05029930878430
N          -2.28211446026263   -4.38718597633534    0.09023602672729
N          -2.09015221756011   -3.09721050334128    0.12037578973424
N          -1.05219382055964   -6.41209959606565    0.20562113357844
N          -1.92439166939831   -7.20647300438963   -0.23982532868439
C          -1.78985047623293   -8.53362616474883   -0.02995061847739
N          -0.64628458491673   -9.19116918826632    0.04054030971801
C          -2.89656017659483   -9.45101826680445   -0.04085712459635
C          -4.28997610415753   -9.44955447335577   -0.08277790113770
N          -4.95029088790810  -10.58186765211623   -0.06063826201282
C          -4.26616759906944  -11.74124206845083    0.01437751770539
N          -4.99480930342982  -12.86340740994877    0.02703229274501
H          -4.53068482915321  -13.75029268318730    0.09907934251527
H          -5.99559846498299  -12.79529373032861   -0.00262008522077
N          -2.93511198245313  -11.87511539247944    0.07549975665163
C          -2.29528248755095  -10.72552920755945    0.04539193623129
N          -0.93435741612807  -10.51363267272057    0.07239309997163
C           0.00704140883139  -11.44961263780727    0.08013118207820
N           0.80330084435632  -12.27078542402611    0.09167549963128
H          -2.25521232752119   -0.41931197523191    0.02541728475489
H          -0.57745860777528    1.76280532662529   -0.01228472688498
H           1.90991362692879    0.64297057058049    0.03658000210266
H          -4.87180865842130   -8.54029284150931   -0.13927383341192
