30
         -59.836351441237          0.000588648151
F           1.57227231208948    0.14664909932092    0.98368333148415
C           2.85923016178506    0.09749275983364    0.72320586947224
S           4.00885116590389    1.00232273042306    1.69856946619225
C           5.21663258382304    0.25374363630931    0.61629739443565
N           4.67862826679652   -0.50495373179251   -0.29577171983703
N           3.36577317414999   -0.58287546832002   -0.23172361937277
N           6.45789878724913    0.71578719890779    0.65282980100373
N           7.49971465830503    0.00156121223094    0.54676779518862
C           8.67368085881245    0.62843188948556    0.35492318811957
C           9.87535522314909   -0.06441776372323    0.29916142846652
C           8.99948704328442    2.02198161275909    0.13176535565533
C           8.23870098735037    3.18137472111905    0.05548513235813
C           8.88807981666442    4.37056070017972   -0.21181809862597
C          10.26541200580897    4.41123891406341   -0.41756095133589
C          11.04086224791249    3.26911898802038   -0.34255408643837
C          10.39662978226865    2.07806872662072   -0.04810306614424
N          10.90061361441730    0.78552149746476    0.07618754822853
C          12.22801976120167    0.41002052953792   -0.03920923298017
C          13.33986749304917    1.07626968976021    0.39052500666955
C          14.53073146024904    0.38145999098489    0.09114973853642
C          14.31099606772843   -0.79363730627938   -0.55066723314996
S          12.64050260813397   -1.09135477326479   -0.81965880759293
H          10.03493840339127   -1.11917037254281    0.41624233414558
H           7.17080552448580    3.14094239128416    0.19706348895506
H           8.32031705474796    5.28629594668809   -0.27530044030873
H          10.73832584782663    5.35443150253029   -0.64524954195458
H          12.10239294569569    3.30879855202208   -0.52786271538988
H          13.30923638581764    2.00465580923786    0.92991087885106
H          15.50847090401456    0.74307620909109    0.35225277519279
H          15.02946285388548   -1.51494489194758   -0.88471101982630
