24
         -56.062171498580          0.000889719386
N           1.55440377062802    0.56689913354149   -0.04180043577700
C           2.68596018133339    0.41342657445630    0.05897033263228
C           4.07202119525622    0.25358684855118    0.16443168369691
S           5.19330059154846    1.40246824272346   -0.57371293885095
C           6.45033479542414    0.32040285052993    0.03913411141467
N           5.96236816035579   -0.69444438430689    0.72393304084395
N           4.67113138068065   -0.71178843863354    0.78622379205651
N           7.70453500102721    0.73069808771015    0.02346428043528
N           8.71440724348451    0.03714517648489   -0.24275892450678
C           9.94100710837221    0.58359616835345   -0.05402608540931
N          10.20713874498062    1.87375061284191    0.06786217180977
C          11.15433200908161   -0.18202614913151   -0.04809020143448
C          11.59424433925154   -1.50590526583702   -0.11733736380604
N          12.87292940707168   -1.77622797066665   -0.05342774810442
C          13.75788555002883   -0.76685080097736    0.08863179502773
N          15.04754391731058   -1.10937957946066    0.15031783436250
H          15.74239420476255   -0.39355635402498    0.26381675439498
H          15.29828936111242   -2.07999645020725    0.09842171116931
N          13.46310214425652    0.53730342884584    0.17297039455890
C          12.17342884001938    0.78338476480186    0.10289227247428
N          11.54248674371454    2.00965948969547    0.15107321437583
C          12.13710779935818    3.19619512550622    0.23549015611111
N          12.66328405232360    4.20778939085855    0.31279075098362
H          10.91734345861779   -2.34125050165464   -0.22706059845846
