22
         -52.602794683001          0.000697357837
N           4.05845798028944   -5.23891049563045    0.02213818209673
C           4.76003128295451   -4.33597373228479   -0.05046265910881
C           5.64031892229035   -3.24950313670946   -0.12755036875767
S           7.34021412226939   -3.40459738549604    0.31335954667783
C           7.42179570774196   -1.67609852349604   -0.03939976855067
N           6.27795502080284   -1.18622528912381   -0.46790336545288
N           5.32163433201139   -2.05409103839501   -0.51549766756047
N           8.61185760386138   -1.09851470556632   -0.11296046032146
N           8.86574610029285    0.07414266210015    0.25085884442426
C          10.09833702234948    0.58353228361561    0.02465552326079
N          11.21675525253065   -0.11363369785991   -0.06394257385392
C          10.38785921614849    1.99341658946168    0.00071292511156
C           9.73714514210884    3.22446809036915    0.03821524984926
N          10.44296899633257    4.33475065834888   -0.02817399934858
C          11.76355775421824    4.25960154171730   -0.14248751878575
N          12.50158526995170    3.16606926782268   -0.19859116281874
C          11.79454618574853    2.05372023556736   -0.12543804207518
N          12.24294237762680    0.75126147006796   -0.13966801480281
C          13.51216742151506    0.34868523437206   -0.18025631117047
N          14.60326949525979    0.01332621255007   -0.22272911043431
H           8.66398785185044    3.31965846370120    0.12566714722992
H          12.29667694184509    5.19804529486725   -0.19746639560867
