30
         -59.585196310142          0.000979163844
C          -0.82230179932564   -0.47943541513070    0.74945671592685
C          -0.28900376551278    0.76944475505200    0.39887292272344
C           0.50509088308951    0.71028876746980   -0.70767744864748
S           0.62205327452718   -0.87499502748866   -1.34834744058563
C          -0.42303515163951   -1.48441050085113   -0.10254238777823
C          -0.78701606507546   -2.85502668438999   -0.01936057629219
S          -0.24627208130484   -4.08539915405913   -1.15629682544617
C          -1.24768875686574   -5.19591169020048   -0.20009875099624
N          -1.82160130952454   -4.60053728757024    0.81897938506600
N          -1.55738499708478   -3.33523768961795    0.91716447873295
N          -1.13142973877971   -6.49702252661529   -0.41191905377162
N          -2.07146482229641   -7.31941254002991   -0.21732046836557
C          -1.78549216923813   -8.63288385714323   -0.14437999954372
N          -0.60496801094296   -9.17015454207466    0.16905293758112
C          -2.76825059099691   -9.67320954768828   -0.25458832010640
C          -4.11870723566344   -9.85917966803518   -0.53082263074726
N          -4.62785070829251  -11.07583973202692   -0.52213065294508
C          -3.83215536706568  -12.10706980433701   -0.25346505428298
N          -2.54373912794987  -12.08192000055327    0.02155305920928
C          -2.03184322187134  -10.85560951749781    0.01595526330616
N          -0.75416920304734  -10.48172653399943    0.27156623309960
C           0.33099907230328  -11.33992447665467    0.64589673234796
H          -1.47048502539330   -0.66268826595614    1.58678388452842
H          -0.48328689893567    1.67678551471429    0.94187851136115
H           1.03238060505154    1.51039464586497   -1.18804632502696
H          -4.79143185934241   -9.04219220560847   -0.75167772834388
H          -4.29968228850432  -13.08217848039315   -0.26117723533727
H          -0.05087262568758  -12.35763547756916    0.69261188108690
H           0.72464957348054  -11.03870250930613    1.61747796710964
H           1.13180941188847  -11.27147054830084   -0.09165907386280
