31
         -59.793693943264          0.000384131108
N           1.64428876337421   -0.17499110890919    1.07023556061241
C           2.97995675567934   -0.16819882477211    0.90233040943273
S           3.99319613761396    1.14990997048973    1.47546312799386
C           5.33827093772088    0.20754498414795    0.74844593987522
N           4.92290867281525   -0.88112902338362    0.18380852281037
N           3.63146070321361   -1.08930739389787    0.25608902884560
N           6.53343196041591    0.79328062453508    0.71973464290607
N           7.59237404233556    0.08637562562382    0.58369865922463
C           8.73740832547877    0.77725962979303    0.41062645378434
N           9.88157392784802    0.10641275493106    0.33616092049150
C           8.99693810181414    2.19088659092740    0.26607175848641
C           8.21330169881854    3.34018000192350    0.25717341877952
C           8.85227006846759    4.54907663090682    0.08825008858502
C          10.23938780756454    4.62439992670504   -0.07228803332821
C          11.03484462086847    3.49848885173537   -0.06820346397318
C          10.39693239902522    2.27607750062778    0.10527909586501
N          10.86646841393452    0.98202537735873    0.15864957350412
C          12.15149729248265    0.49499543402978    0.05243272654996
C          13.40316200930473    1.05601461079957   -0.06773236724268
N          14.33167405841915    0.07261049271022   -0.12881142919597
C          13.68250826793106   -1.05571851073820   -0.04883951396805
N          12.34923780206255   -0.85925332308405    0.06365751890697
H          11.59674912389121   -1.52529458299546    0.14990408822533
H           1.23589841485901    0.44628727500958    1.74580032901109
H           1.16781834634711   -1.03771874394671    0.86684547362105
H           7.14482598282479    3.27070148852425    0.38067663013007
H           8.27548995257305    5.46157558112986    0.07692556406043
H          10.69897313486004    5.59238689312756   -0.20433609931219
H          12.10133311496092    3.56948607477456   -0.19733469543827
H          13.69829087691598    2.08287934124027   -0.10884252365854
H          14.13776828558012   -2.02464414932387   -0.06910140558666
