34
         -70.528668498124          0.000863484093
C          -4.62888236909678   -0.83442280078104   -0.15173944725069
C          -5.70952861722870   -0.01294368401845    0.00463848159356
C          -6.77982259395121   -0.87874479311016    0.32297357838478
N          -6.38431505860058   -2.12700292970289    0.35738165909284
N          -5.07736861065302   -2.10399948289267    0.07028581728275
C          -4.34060176808947   -3.24801412243616    0.02085050326222
S          -5.03219532756134   -4.80223560380521    0.41558911795297
C          -3.39105209988749   -5.41748730602809    0.09978513024083
N          -2.56289753700942   -4.48020147511968   -0.27307933189692
N          -3.08867903760786   -3.28625421246659   -0.32476317801959
N          -3.22078856226322   -6.73685344747952    0.05759992146817
N          -2.08843194175498   -7.26364530063526    0.28720509638671
C          -1.96897544562209   -8.59778127181963    0.13168853226034
N          -2.95709585983976   -9.48601534273037    0.05468985826376
C          -0.70675282252867   -9.28185625403676    0.12816559669445
C           0.65820314004764   -9.01084453006735    0.16586917589221
N           1.52342743564621  -10.00423185861528    0.12487260229215
C           1.06894867038371  -11.25121866963046    0.03800998094180
N          -0.18641744491479  -11.64923058409848   -0.01358157899250
C          -1.05614223851627  -10.65136483449489    0.03317784690617
N          -2.42528311924921  -10.70504608023118    0.00885177213375
C          -3.23535353548263  -11.82017845375159   -0.01559413669878
C          -4.60298539511598  -11.90516742434744   -0.04549273188007
C          -4.88518328563766  -13.28925332415376   -0.05654303361964
C          -3.67981974522151  -13.92476623702805   -0.03226961484882
O          -2.67128267709417  -13.03633591638910   -0.00731157881055
H          -3.60230354162401   -0.65295397010359   -0.39340832929904
H          -5.74358638295666    1.05222618577396   -0.09180560213249
H          -7.80341838687903   -0.62978852508221    0.52011426144500
H           1.05369498031746   -8.00685285949972    0.23116500906413
H           1.81791716908872  -12.03033268243891    0.00396090801259
H          -5.28782853594057  -11.08428406486542   -0.05755602303760
H          -5.85322220105535  -13.74467483537964   -0.07916632654040
H          -3.41386725410064  -14.96252330853863   -0.03097393654401
