19
         -36.606486983652          0.000865213166
H           1.06161385843182   -0.31388568017431    0.07653036168661
C           2.11329190291452   -0.10880420483616    0.07752760960210
S           2.73476626525065    1.50183281227767    0.08028098394029
C           4.33210548719302    0.71525514918302    0.08191662782913
N           4.24038289400154   -0.57680045674518    0.08011030067716
N           3.01274240522670   -1.03192509958640    0.07793314655558
N           5.40272563959638    1.53353218964907    0.08138874529841
N           6.56076605456126    0.99010985716385    0.09148528062715
C           7.60331316742772    1.85220205030926    0.08823456374006
C           7.64197113913623    3.27959609824574    0.07920980319627
C           8.97369695958328    3.57994333294573    0.08232109300008
N           8.85096644578778    1.36551253439703    0.09587018693149
N           9.64997621917384    2.40047086576546    0.09199532936123
C          11.07275205001091    2.22554987931867    0.09844371909667
H           6.80035410932174    3.93924875387925    0.07237597028237
H           9.48979812112599    4.51921525530928    0.07848700160147
H          11.27489332195256    1.15677638342634    0.10013079193876
H          11.50979083360880    2.68168306617803    0.98841898497112
H          11.51758312569527    2.68069721329362   -0.78811050033597
