23
         -47.542942873361          0.000824346762
N           1.65903946614431    0.22142629761370   -0.05236839510793
C           2.80215247197626    0.13754344079921   -0.05456301182856
C           4.20193267763222    0.06822558109527   -0.05806096411181
S           5.19026283602256    1.51031304953990   -0.06378006413685
C           6.55669827941903    0.37879740344029   -0.06487603731455
N           6.17340074258362   -0.86738157446930   -0.06064761422248
N           4.88868648238933   -1.03953089965356   -0.05694677869191
N           7.78300651101328    0.92460191729204   -0.06754473036096
N           8.78064888077886    0.11815835531942   -0.07217749315052
C          10.01023870316020    0.65874968714308   -0.07359045769143
N          10.32822360366442    1.95914728747473   -0.07417093278944
C          11.21412921012263   -0.13152887614226   -0.07628771651746
C          11.51108143243686   -1.49025472050260   -0.07669680468480
C          12.84132139482522   -1.85077186338552   -0.07964060389345
C          13.86475975645699   -0.89440828659366   -0.08215259278157
C          13.59498799877040    0.45652345784965   -0.08170094749128
C          12.25389403449140    0.82437567242486   -0.07862128307427
N          11.63904429872398    2.04498209533846   -0.07736055952042
H          12.07754515975251    2.95464959053924   -0.07893560012146
H          10.71873980342344   -2.22074349533695   -0.07475591562785
H          13.11013171638256   -2.89615759460277   -0.08007164643318
H          14.89118946812184   -1.22848575765974   -0.08447568499745
H          14.38186507170811    1.19455923247649   -0.08359416545036
