28
         -49.382418778481          0.000922315250
C           1.65919782955949   -0.12084474366044    1.16842454161158
C           3.09105043526821   -0.09187574194819    0.80355822431517
S           4.28693754854611    0.77562800523355    1.76948304038925
C           5.46535508931702    0.14756915339902    0.59688267822523
N           4.90608582751361   -0.55468745234845   -0.34572240260698
N           3.60242194206538   -0.67159280593612   -0.22018671145822
N           6.69806277681141    0.64500860372502    0.62633219659301
N           7.74483927897841   -0.04199207456392    0.43954820677250
C           8.89756960594075    0.64206810408404    0.28151822599690
N          10.04336029925358   -0.03427163677970    0.20938826378753
C           9.15995372727138    2.05251318628700    0.12664714816168
C           8.39919041130991    3.21752935443093    0.10662752464979
C           9.06326784343550    4.41121590068099   -0.07497986545236
C          10.45264332967768    4.46316936754061   -0.23778597031558
C          11.22654309223979    3.32358265276215   -0.22523268525591
C          10.56091329661176    2.11619210848354   -0.04010083467817
N          11.01779520248890    0.82786278042348    0.02415114411552
C          12.37477678206129    0.38345260091358   -0.08787962154335
H           1.26001884686668    0.89109402512899    1.22188277407071
H           1.52964464826551   -0.58736340697801    2.14436154164284
H           1.11326489345834   -0.68902363606445    0.42033585672617
H           7.32918567843088    3.17588882382914    0.23131755397275
H           8.50366903709666    5.33426805184629   -0.09355804767831
H          10.92636930585006    5.42320256088368   -0.37817587717541
H          12.29689003713722    3.36486237853025   -0.35451558962251
H          12.99192592914511    0.84510924074012    0.68613904869939
H          12.78129127894381    0.64135553161084   -1.06859029023696
H          12.37985602645539   -0.69784093225275    0.03569992629421
