29
         -64.025211517197          0.000298505491
C          -1.09193219331468   -0.35331064123587   -0.17001584983502
C          -0.36105440835067    0.83788270609879   -0.05446750663137
C           0.95199216191628    0.62235065103389    0.24253401196507
S           1.32737335283786   -1.04260108711315    0.38827684840155
C          -0.31906203860281   -1.47222133320480    0.04364672183228
C          -0.76087659732058   -2.82204718990726    0.00179648562320
S           0.26154250996765   -4.20436230212524    0.36457992311224
C          -1.19967723496824   -5.16978794266458    0.08891423884322
N          -2.22582178987551   -4.43484990724340   -0.25893787076866
N          -1.98110849028557   -3.16283076894620   -0.31388033149523
N          -1.07816979753775   -6.49240050837897    0.04009610297862
N          -2.06726019719715   -7.25111436372099    0.27749569103770
C          -1.91461700631825   -8.57792670589199    0.08804565897297
N          -0.76987920004325   -9.24195890881769   -0.08098761026798
C          -3.00716651909736   -9.50504985017204    0.11367850046082
C          -4.39929737917528   -9.52444966136493    0.22659072084666
N          -5.04876807989888  -10.65983047152460    0.18560338385806
C          -4.36046079817732  -11.81188747467444    0.02556753340474
N          -5.08932590640857  -12.93491002423722   -0.00287084728200
H          -4.62921754138180  -13.81672510997453   -0.13553768922981
H          -6.08733110030176  -12.86948117261771    0.07548718839418
N          -3.03689583654797  -11.93456020811134   -0.10500929558229
C          -2.40338744184125  -10.77747085924170   -0.05747273651734
N          -1.08277850501860  -10.51105717274142   -0.16301347785509
F          -0.08142117900401  -11.43055858565559   -0.24861671263685
H          -2.13940000628196   -0.41747101642323   -0.39799644734201
H          -0.78679101133189    1.81629140211004   -0.18497607390880
H           1.72649124510925    1.34981863393299    0.38486841813917
H          -4.98424901154983   -8.62406012718662    0.35004102148216
