27
         -61.393614710153          0.000548311193
C          -1.28917632129602   -0.25824403049674    0.00811557416779
C          -0.39503111814706    0.82666598425271    0.00055225674557
C           0.85909870273909    0.28220043471321   -0.00570466319915
O           0.80242725750542   -1.05161479005098   -0.00255490040568
C          -0.50511691996024   -1.39430838900926    0.00588239554607
C          -0.88046068756960   -2.76532505415380    0.01099658208595
S           0.27111686377400   -4.07145205182836    0.00774382000761
C          -1.15877152170733   -5.13036633133192    0.01867918066038
N          -2.27408653264460   -4.45247251130139    0.02277481048980
N          -2.13086680266454   -3.16761585057013    0.01851300672210
N          -0.92959083903435   -6.44686489631148    0.01888655460633
N          -1.93879509831731   -7.23531944263052    0.03144022125467
C          -1.67614495583279   -8.55865026168017    0.03050055281053
N          -0.48098522917116   -9.15279698691594    0.02172185746799
C          -2.70286056412431   -9.56256901198968    0.04109445130398
C          -4.09229807580620   -9.67903335539924    0.05282203877666
N          -4.64955081192384  -10.87182920219059    0.06012002075530
C          -3.87338093712177  -11.95283428366889    0.05605638434328
N          -2.55662375184856  -11.99616801452325    0.04510048438073
C          -1.99723306877858  -10.79591009137132    0.03780393381280
N          -0.69350373432293  -10.43964768162027    0.02621520895342
F           0.37202190874206  -11.28403348978696    0.02008541223645
H          -2.35857370846297   -0.23790362750022    0.01439719359629
H          -0.64274109711937    1.86789295160571   -0.00017655867062
H           1.83260839773365    0.73200083899300   -0.01241873099748
H          -4.74828873362101   -8.82004927744151    0.05633874459757
H          -4.38182262101965  -12.90670157779209    0.06243416795165
