25
         -50.207059354886          0.000585183291
H           0.90416872506420   -0.16808040585068    0.18969948901444
C           1.94438328700151    0.03095444098693    0.03300390159321
S           2.90789774276264    0.86654358265478    1.21830808843386
C           4.24943148055250    0.59755169187430    0.08304499253686
N           3.86308624588610   -0.01080969977835   -1.00722771984742
N           2.58721695162610   -0.31006745700097   -1.02217864595157
N           5.39291519743543    1.23309616143023    0.29299238203319
N           6.53500762215357    0.73492843127443    0.09843722815856
C           7.60775026978998    1.55201539026671    0.09642546362619
N           7.59949198030989    2.88258707497929   -0.01357480193039
C           8.96125445289298    1.08210509862675    0.11913476599679
C           9.69440349347695   -0.10079918214187    0.20434294945598
N          11.00440968245066   -0.06590773067062    0.18653502512264
C          11.63106193306141    1.12612932189105    0.08896339480452
N          12.97352926652747    1.08241641095228    0.09734626217243
H          13.49595509182313    1.92836081918054   -0.03412573220365
H          13.42553501935026    0.18697763731267    0.10154270205329
N          11.05385880609023    2.32546813418565   -0.00016594566639
C           9.72945470404498    2.26685804553035    0.01943090697697
N           8.85373386305556    3.30123175045484   -0.06428063334787
C           9.18087791590571    4.68839493103541   -0.21259243255186
H           9.22960680312809   -1.07375847782349    0.28081182259738
H          10.26301621113545    4.76640629925089   -0.29218524591755
H           8.82645657895140    5.25119648761668    0.65228322626725
H           8.70423667552420    5.08818124376265   -1.10823144342703
