23
         -50.432963984819          0.000732062026
C          -1.09484728383296   -0.35206191724421   -0.38052564944933
C          -0.40111444037246    0.85714171154223   -0.22526404697610
C           0.83965284648914    0.68654259459790    0.31228900682996
S           1.19228720779601   -0.95794706539753    0.64005972641597
C          -0.36627097012831   -1.43929669763140    0.04504551172406
C          -0.78225334376786   -2.79799109597320    0.02327707113830
S           0.20432195434022   -4.13305289512232    0.60790474989473
C          -1.18925264181395   -5.14934246786566    0.19156984709872
N          -2.17026962329771   -4.46019640611487   -0.33815879897541
N          -1.93766718481716   -3.18752980464651   -0.43724370552678
N          -1.03130874489416   -6.46424748611456    0.20301670551249
N          -1.96377747334268   -7.27817660157366    0.45330573269507
C          -1.74153374683240   -8.59184971044798    0.20599257311451
C          -2.64348460652113   -9.62005023174870    0.58336614624085
C          -2.07382478046984  -10.77964324657712    0.12096369069988
N          -0.69149435346391   -9.11772786863863   -0.45193262122495
N          -0.93262883001930  -10.38254322988986   -0.47195746627457
F          -0.06516057103708  -11.22857964714470   -1.09077227472400
H          -2.08506021955354   -0.44982383357343   -0.78420417119760
H          -0.80169337833186    1.81620533682771   -0.49940157534988
H           1.57351808526173    1.43535306054026    0.53623483609680
H          -3.56182291764383   -9.49594550317267    1.11669770213738
H          -2.36934498374770  -11.80683699463067    0.16083701009990
