26
         -50.724590719708          0.000653241437
C           1.37319150163174    0.12988850567533    0.07598922868446
C           2.85023036945516    0.09587621402639    0.07228413966357
S           3.83666465706877    1.53551745193730    0.07024206435831
C           5.21613373381736    0.41548726137343    0.06649062191990
N           4.83822616137147   -0.82615893026585    0.06706315147788
N           3.54642878000647   -0.99712707483129    0.07021034408675
N           6.44361993748067    0.96317344125179    0.06290815569084
N           7.44580444017750    0.16691133480049    0.06024652969614
C           8.65812378434883    0.76883691904668    0.05639680567495
N           9.73762613485020    0.00870260058920    0.05147361957623
C           9.03020783134238    2.17235227599583    0.05677474098092
C           8.35267741484702    3.38674266004284    0.06093690092417
C           9.11018908565623    4.54016744765288    0.05954051502665
C          10.50738950457311    4.50393333362114    0.05418378864562
C          11.20145827051017    3.31049881357525    0.05007083197557
C          10.43626046775397    2.15505390789759    0.05151973192952
N          10.80288465714608    0.81521804310279    0.04842075890196
C          12.05206689551618    0.36897117880814    0.04262999155104
N          13.14736773139651    0.03692456433893    0.03876889324014
H           1.01021377362867    1.15332786397155    0.07538394763829
H           0.99771352770617   -0.38979255102969    0.95654373268615
H           0.99328684973912   -0.39252862457051   -0.80102313630271
H           7.27534861460254    3.41145853409687    0.06502639638718
H           8.61547685395741    5.49954942386047    0.06265098229237
H          11.05650533630921    5.43306136751671    0.05327614430154
H          12.27945368510706    3.27184403751577    0.04598111899261
