34
         -66.465459794616          0.000376551304
C          -1.01763335904193    1.03690310240946   -0.53513391518080
C           0.27362791752287    0.92940219391867   -0.81756369392097
S           1.35118268787701   -0.32768342967588   -0.21235812079163
C           0.15705196936657   -1.28916528511678    0.65240034983121
C          -1.12382582459217   -0.97225549068084    0.80335775226895
N          -1.73819852670969    0.16817927057055    0.29123291107290
C          -3.03653398054587    0.44700556220202    0.54896978692227
S          -4.04491680684117   -0.51501817568531    1.62430679769685
C          -5.31932500357964    0.68923383184812    1.23537532747414
N          -4.89744132880271    1.59637736056304    0.40254779532739
N          -3.66253860235708    1.46429044560480    0.01351008715397
N          -6.54588173382373    0.42065117798660    1.65069547243834
N          -7.41938477353796    1.34417903272762    1.76795912968076
C          -8.70262838422112    0.97920736972448    1.94796524948131
N          -9.23426641704012   -0.22572699563496    1.73274653294545
C          -9.73801156005426    1.89929451334891    2.32197253103525
C          -9.91942207440107    3.23381576597354    2.67345000900124
N         -11.11859011904313    3.68476243973363    2.96009917420489
C         -12.16618510166669    2.83661573209603    2.91147705368514
N         -13.36748771978048    3.37481569379239    3.19157110405989
H         -14.17117486635269    2.77798290675008    3.24984241208785
H         -13.40530326681833    4.32676082751010    3.50484892270962
N         -12.13271187914115    1.54033998265106    2.60123606899010
C         -10.91194222495720    1.10776592254242    2.31149007117371
N         -10.54356028846469   -0.14425297295940    1.94615750502558
C         -11.40632275680287   -1.27538750898683    1.77452219882991
H          -1.62174470872169    1.83439308890111   -0.94017388659697
H           0.76565345592736    1.63253573040659   -1.46545939100922
H           0.56020831968221   -2.19586600683943    1.06672004522663
H          -1.78685522860673   -1.62573948186260    1.35159547823992
H          -9.10423739698081    3.94226065979748    2.72291253936767
H         -12.42606350407224   -0.94320580958411    1.95714127293038
H         -11.13575493300434   -2.06316034607695    2.47957929142637
H         -11.31100198041455   -1.66618110795542    0.76061613721222
