25
         -55.335382721641          0.000805641248
C           0.36093138743757   -2.69559776739552    1.48545062063881
O           0.59415610883056   -4.02299434680624    1.02809950493118
C           1.71427683559362   -4.21898716641756    0.37518701493034
S           2.10833866784998   -5.82206965836526   -0.20868537885383
C           3.60550212481794   -5.05246246575019   -0.79416479347256
N           3.64755501754895   -3.77911705563182   -0.54497338328278
N           2.60138970665404   -3.31359423413478    0.08813441741516
N           4.42030053911783   -5.78612910358732   -1.56169285589757
N           5.62686807013119   -5.44847996160015   -1.70739719853645
C           6.44821091506570   -6.18908714076697   -2.47846422048962
N           6.43725167365372   -7.50564557853680   -2.57030435765459
C           7.60230381681384   -5.65312480422072   -3.15693906354076
C           8.20218710592250   -4.43182184522196   -3.44283917033075
N           9.31779200308289   -4.40154395299314   -4.14687785753630
C           9.83970906590227   -5.54263846787865   -4.57831383728195
N           9.37464775038935   -6.76347737812813   -4.38425133028965
C           8.26146785952648   -6.79247229860742   -3.67360507072883
N           7.52949045856034   -7.88523262984713   -3.27294930433294
C           7.82855073095587   -9.16308979967312   -3.48650916415861
N           8.08633812790987  -10.25913249263361   -3.68402888707799
H          -0.59565776767368   -2.72632316043885    2.00117391855231
H           0.32253535090284   -2.00521574678169    0.64123405846947
H           1.15508811138698   -2.38085609705281    2.16440634632486
H           7.79991105265519   -3.48675492014248   -3.10572927854045
H          10.75036528696420   -5.46685192738778   -5.15572072925669
