29
         -55.865316543495          0.000957674010
H           1.35997020693928   -0.65950841460435   -1.11817951229015
C           2.36940413674979   -0.38692832585217   -0.88792076051058
S           3.25750362753427    0.74664321780544   -1.86690651564890
C           4.59934970504009    0.41722317159346   -0.74366268786596
N           4.26068110137927   -0.41479900469103    0.20295894524527
N           3.02577334917256   -0.84725796016683    0.11238334050723
N           5.66741729932500    1.20350361951660   -0.79505039291462
N           6.85763593188152    0.80160689470850   -0.62818412138195
C           7.80217471178673    1.74963316163236   -0.46614284882549
N           9.07660296411714    1.37952286459604   -0.40635396634412
C           7.70379870463476    3.17925409219228   -0.28782688293102
C           6.65977233947635    4.09675890159191   -0.25592897075265
C           6.97934407926599    5.42225715030743   -0.05480245847426
C           8.30414754911695    5.83235249994271    0.11734265906510
C           9.35416596056105    4.93824488398427    0.09125641070096
C           9.03987173746978    3.60075511131672   -0.11758208509905
N           9.81498251058729    2.45927715937996   -0.20383030436229
C          11.18150918411981    2.30661255193659   -0.11141346865095
C          11.84079367374675    1.10744781691474   -0.16829761139416
C          13.23547657239082    1.25765982429156   -0.05531685867493
C          13.61962815472585    2.55277771020174    0.08370120386169
S          12.28264449532870    3.63374581341530    0.08043111598595
H           5.64110356812836    3.76961546436632   -0.38719544165245
H           6.19489171753473    6.16309364915169   -0.02722253222678
H           8.51163610923217    6.87951253735563    0.27700058764731
H          10.36832209200364    5.27407931258790    0.23043408340142
H          11.32389745929552    0.17391496187735   -0.28542853508467
H          13.92451532457051    0.43332733476160   -0.07625761107701
H          14.60817573388458    2.95195399988653    0.19036521974597
