31
         -63.274598880715          0.000966855223
C          -0.75440573630568   -0.39884579511303   -0.32919769319943
C          -0.14223376366177    0.78888443185692    0.10113484554816
C           0.73547807884417    0.58844679101173    1.12398929966043
S           0.83552712296228   -1.06001411282098    1.58625790117967
C          -0.33144356210282   -1.49958948672951    0.37844295902235
C          -0.76236906744600   -2.84225689611049    0.19554474060664
S          -0.20173643730532   -4.19065998289556    1.18315240353540
C          -1.32104393017058   -5.17117039846561    0.21164696680230
N          -1.93152767840713   -4.46635600435805   -0.70978441039710
N          -1.61586224278321   -3.20533384680820   -0.71728259652391
N          -1.25836273233962   -6.48684712976806    0.32610439874762
N          -2.26130071939601   -7.25076517509167    0.17334862219628
C          -2.05018230962002   -8.56911520183396    0.04715207346828
N          -0.87389125937016   -9.18644673044677   -0.15386034472361
C          -3.09789052487681   -9.54536038216093    0.06015834963020
C          -4.48094150276711   -9.64730277697991    0.21723023600310
N          -5.06485779715943  -10.81937791023582    0.17461054984355
C          -4.31560479998594  -11.92733900506438   -0.01454845494142
N          -4.98381079094327  -13.09360298062839   -0.00712643746027
H          -4.49533340281680  -13.93945469075648   -0.23644468402453
H          -5.98649116785810  -13.06897498475515    0.02911826039488
N          -2.99352753692440  -11.97468861475181   -0.18194328434891
C          -2.42891291703939  -10.77401634135849   -0.14794590500908
N          -1.11021962880582  -10.47316152382912   -0.27454197030298
N          -0.10939552116701  -11.35516699384979   -0.60060118453146
H          -1.47712061137620   -0.47079317627798   -1.12081407976799
H          -0.34288211499683    1.75431207439799   -0.32772685227932
H           1.33361579356199    1.31460671143070    1.63786427230064
H          -5.11590896050992   -8.78689305408822    0.37451699020468
H          -0.29427050417511  -12.26457112847310   -0.18921734022021
H           0.79082622494371  -10.96955568504415   -0.33396763141387
