16
         -41.821528398894          0.000931008725
F           1.40747972458430    0.01023102181998    0.09702645257815
C           2.71607045285989   -0.00214042461277    0.09267077589378
S           3.63595837846395    1.47547350215494    0.10496921212493
C           5.03915132694785    0.37819103783922    0.08909612192750
N           4.69737372442869   -0.87234746139121    0.07727946646124
N           3.40788146452156   -1.08943135469832    0.07920342149867
N           6.25107118125297    0.96199430962215    0.09120258975639
N           7.27530490548074    0.20289890350465    0.08002179982346
C           8.48751603879372    0.79776669045325    0.08227572356650
C           9.70720996955959    0.06946043370556    0.07055005801841
C          10.69156870949184    1.02444655596498    0.07738782833880
N           8.74360229583529    2.12189086617805    0.09542996381964
N          10.02548562731054    2.19538776463565    0.09197192529494
F          10.63521945553961    3.41061312003540    0.10285971639551
H           9.80881851456211   -0.99473664739239    0.05895195998186
H          11.76018823036734    0.97527168218088    0.07333298452021
