31
         -64.100665874658          0.000976900663
C          -0.93690736577687   -0.31167218369071    0.74511739013660
C          -0.11936956182044    0.74886751830483    0.30988742395441
C           0.82149863574023    0.19038635271112   -0.50571451053281
O           0.64466725470189   -1.13264082943118   -0.60446534707628
C          -0.42694043390344   -1.44788723142183    0.15563791054041
C          -0.86656831857734   -2.79912116092394    0.24172615716500
S          -0.08754759814129   -4.11066836839990   -0.63676703292650
C          -1.35303825661627   -5.13383529690058    0.07902553865094
N          -2.15036300337335   -4.46144421861284    0.87301158055826
N          -1.87288313474494   -3.19357439641445    0.96345587493076
N          -1.24104494292678   -6.44605366907534   -0.04194943187735
N          -2.23775461291837   -7.22873392910746   -0.12070520277520
C          -2.03547201506430   -8.54724250008063    0.01650478310206
N          -0.91662308316029   -9.16110418522135    0.43686714763123
C          -3.04583699888850   -9.53094174615294   -0.23348463550994
C          -4.36650789588620   -9.63826767187533   -0.67175255851919
N          -4.93129496145665  -10.81524656994085   -0.78073796109280
C          -4.22190274380241  -11.92266516070143   -0.47201730712610
N          -4.85960123069413  -13.09269228748998   -0.64909898715177
H          -4.41999173629338  -13.94206654343640   -0.34661327693857
H          -5.83232136427473  -13.07254201137287   -0.89320991591775
N          -2.96191362535851  -11.96507971584604   -0.03787084577691
C          -2.41774111304054  -10.75972019361198    0.07550762176072
N          -1.15608978570990  -10.45236527413615    0.47483997566327
N          -0.23072079914505  -11.33492050855160    0.97554118254360
H          -1.78357490216113   -0.27222325600397    1.39756127326493
H          -0.21472827067194    1.78406159807199    0.56583805173933
H           1.63832817487041    0.61723130142972   -1.05304993544519
H          -4.96694209957024   -8.77810824619749   -0.93189101632262
H          -0.31744836890439  -12.23519261424694    0.51480809947868
H           0.69982415757122  -10.93576700167120    0.90617795386857
