32
         -59.017978047674          0.000707634256
C          -0.93156047797146   -0.41767410771433    0.44830050436360
C          -0.28343126280388    0.78672766417921    0.12771853074682
C           0.75845861898999    0.61190867360508   -0.73082360273412
S           0.97420903778144   -1.03303766975572   -1.16956559791304
C          -0.36978410827803   -1.50473412496682   -0.17723764165507
C          -0.78980872479795   -2.86001934885490   -0.06952415111163
S          -0.05574491737600   -4.18039180035840   -0.98414975659606
C          -1.26970327884760   -5.20472278391091   -0.18388842517771
N          -2.02448079502851   -4.53131556287952    0.64428483330331
N          -1.75389084054646   -3.25636372975230    0.70329370248540
N          -1.15145701957001   -6.51971599747782   -0.29681831607027
N          -2.14466868448370   -7.31640456231162   -0.31233329701662
C          -1.89037599427305   -8.63008842413943   -0.19594617085045
C          -2.90502509880780   -9.58488748620763   -0.26641378516729
C          -0.66427837091849   -9.36482043884208    0.01737222355712
C           0.67021191290177   -9.00071439892269    0.15599782262089
C           1.60301653320524  -10.00075989763378    0.34389587153272
C           1.23133888784281  -11.34464972833156    0.39891421337041
C          -0.08703487467235  -11.73209685907715    0.26352593775828
C          -1.02524325621276  -10.72851912199230    0.07165877002909
N          -2.39039651790605  -10.81338075828692   -0.11135858360793
N          -3.10180443241248  -12.00343597230652   -0.04111398292702
H          -1.77589052642842   -0.50852069809796    1.10587062229327
H          -0.57791021434775    1.74497607833536    0.51718709312200
H           1.41897731520036    1.35311796367742   -1.13558237052538
H          -3.95600994689762   -9.41824479259235   -0.40622455427837
H           0.95650438178711   -7.96220823745138    0.11460129757356
H           2.64542134323952   -9.74224744577421    0.45370605585138
H           1.99097456339032  -12.09629082844243    0.55186536608633
H          -0.37656617357674  -12.77029344527639    0.31723688619668
H          -2.72798196189897  -12.68607539713921   -0.69688659373436
H          -4.08360511628305  -11.83361676129825   -0.23587290152747
