29
         -60.646631049419          0.000812600597
C          -0.98115549500615   -0.32820156846793   -0.65364947828821
C          -0.27079867633835    0.77993570286556   -0.15431300817449
C           0.59179523330969    0.28569453828214    0.78180888878827
O           0.46583901479730   -1.04125070645264    0.89544235796638
C          -0.49263708025040   -1.42537009101791    0.02294817635701
C          -0.85435808527060   -2.79775391349921   -0.07990417891158
S          -0.11895185973523   -4.05374649204306    0.90533599699008
C          -1.24271600487379   -5.14961725783301    0.07110204835071
N          -1.97685086483527   -4.52920858737671   -0.82021711165347
N          -1.75315407559022   -3.25231786157392   -0.90463128469420
N          -1.08165209172299   -6.45429905480142    0.22594028721669
N          -2.04369052674198   -7.28002212697595    0.16309384984532
C          -1.76902850405307   -8.58716450601733    0.04401253202825
N          -0.59570846037672   -9.14185594975590   -0.30519284731580
C          -2.74939654457148   -9.62053614505581    0.19400333818678
C          -4.08988747182272   -9.80069952162183    0.52981890372028
N          -4.60056063735841  -11.01464744812405    0.56234007612761
C          -3.82085066844297  -12.05682032687926    0.28155845310040
N          -2.54596993679218  -12.04104163932923   -0.04928336139638
C          -2.03882378649610  -10.81326765941164   -0.09595084125544
N          -0.76728794888036  -10.43980576788710   -0.39391194673405
N           0.22464496681880  -11.26160125886427   -0.86184766473847
H          -1.74543158896895   -0.34476180102696   -1.40206335236803
H          -0.38239863695802    1.80324782529518   -0.44755051656570
H           1.31727772133916    0.76438358488006    1.40990435306877
H          -4.74859674156923   -8.97832257437995    0.77092243174527
H          -4.28979908929188  -13.02958113696945    0.33332750306778
H           0.13435585635304  -12.19255551393718   -0.46863901616920
H           1.13447198332949  -10.83954274202100   -0.71043458829566
