29
         -59.865902019119          0.000918729473
H           1.04024606660498   -0.01849131401460    0.15815550986233
C           2.08168465759763    0.18543988302887    0.01650924641471
S           3.06286738569765    0.87372459781126    1.27822433801971
C           4.39407487390937    0.71745895528006    0.10832285719221
N           3.99167205138293    0.23782861434440   -1.03917503539259
N           2.71315029269066   -0.04343093784662   -1.07586417399005
N           5.54513379436877    1.31192075552409    0.38076908740637
N           6.68045194533009    0.83632267406707    0.09747661021101
C           7.75657229965371    1.64087813802518    0.15555021085237
N           7.74899799636137    2.97518004562396    0.11962864843917
C           9.10992924155770    1.16181127157498    0.14478433812469
C           9.84312641415471   -0.02391039060612    0.16553636310044
N          11.15412557401069    0.01041884357042    0.14610513562526
C          11.78559581546954    1.20162780514712    0.11081146422261
N          13.12540191529933    1.16444743017077    0.09973787285847
H          13.64053533759993    2.02397162897486    0.05166875057506
H          13.58743839490718    0.27412103556993    0.09281670033970
N          11.20301051033696    2.40422623330239    0.09132876619429
C           9.88421636001699    2.34090025038339    0.10947093989911
N           9.01107669478836    3.39172162725166    0.08354024855368
C           9.35749147494761    4.71799126695965    0.00418072365556
C           8.51379250297661    5.79380552357407   -0.03601636790755
C           9.22161731440912    7.00804288407218   -0.11245875449602
C          10.56964282325042    6.83174160464387   -0.12729330006396
S          11.02667831852369    5.17328587562936   -0.05000899103917
H           9.37882030337184   -0.99959049576690    0.19270532065138
H           7.44488470157513    5.69574251791729   -0.01145963448786
H           8.74503521846009    7.97045004698707   -0.15387622457814
H          11.33240972074640    7.58257362880038   -0.17896065024262
