30
         -55.610141829003          0.000863629163
C          -1.17422036648643   -0.38031071379552    0.00836781237369
C          -0.43436021654047    0.81259113394778    0.00681566751982
C           0.91064092904666    0.59684089706937    0.00696054460816
S           1.30596876583747   -1.07116873166390    0.00898408031416
C          -0.37595207583217   -1.49948590817725    0.00970533999764
C          -0.81113979752983   -2.85484393495086    0.01185902760497
S           0.28186619771461   -4.22570751410576    0.01393250216553
C          -1.19724494273139   -5.21437136979793    0.01655745313756
N          -2.27519100877588   -4.48781015764685    0.01541701774719
N          -2.06844094387628   -3.20229857377148    0.01286130142321
N          -1.02602249516997   -6.54347876419435    0.01938152965979
N          -2.08506478151412   -7.27859831169026    0.02313353410044
C          -1.88061149744048   -8.60893764687195    0.02637020179099
C          -0.69338341473419   -9.34355536943723    0.02649568195811
C          -2.95069190899877   -9.57524799134870    0.03135718816192
C          -4.33635564290549   -9.47240181696052    0.03358649006022
C          -5.07442446964384  -10.63870362209212    0.03880247403954
C          -4.45895292380619  -11.89140616122686    0.04180241045088
C          -3.08373848364888  -12.01704403724560    0.03961467402863
C          -2.33995084068456  -10.84672664663013    0.03434342092809
N          -0.97552808011231  -10.65993642568823    0.03122043865428
H          -0.29393630379283  -11.40258578580194    0.03241776262457
H          -2.24625080183857   -0.44307143768366    0.00857604286327
H          -0.87813255448008    1.79181796045218    0.00567311131081
H           1.69952587886137    1.32275064565186    0.00601353531235
H           0.31255665922069   -8.97055017728267    0.02352621104404
H          -4.80503813945385   -8.50179547935940    0.03127238609476
H          -6.15286722765516  -10.58782760774285    0.04064219975355
H          -5.07163884718617  -12.78039556806854    0.04592144431103
H          -2.60659066584285  -12.98569088388669    0.04194851596078
