35
         -62.209108719577          0.000669988697
C          -0.86909349608863    1.28589341886129    0.06758175219326
C           0.42020886733479    1.19175102734509   -0.22490392059435
S           1.33863247897439   -0.31102450260705   -0.33560618885669
C           0.04239154823989   -1.42975616385400    0.07959245333623
C          -1.21275094967217   -1.09035617489293    0.34592028290629
N          -1.71758565749799    0.20830893900572    0.34414088265373
C          -3.01903708772595    0.46328544134272    0.61705216901687
S          -4.18791427664770   -0.78340373936096    1.02647079009167
C          -5.35146464562823    0.58481755347175    1.15610749822794
N          -4.79308617544243    1.72111316443080    0.89561317466299
N          -3.52174156824421    1.67042883380338    0.59827373112681
N          -6.60923115206268    0.25043696454011    1.44468845043994
N          -7.46095183964522    1.19965294240418    1.64357789513468
C          -8.72630502609655    0.81501229397432    1.89196470240538
C          -9.74672787312773    1.73325745970288    2.10706622878572
C          -9.33822579464152   -0.49092368632026    2.00773459078478
C          -8.85373499230550   -1.78927420770936    1.90745768523841
C          -9.73839882335745   -2.83302490434612    2.08963309500346
C         -11.08446158305268   -2.59980979670549    2.36741320203735
C         -11.58715089698261   -1.31758632337654    2.47210949837363
C         -10.70375638496587   -0.26289345323960    2.29040833273036
N         -10.91390044537144    1.10042986103262    2.33924437421968
C         -12.16145639063118    1.76576453774244    2.59102627802501
H          -1.37024720115927    2.24064993122487    0.11508697287960
H           1.01488790733664    2.06509605550889   -0.42407766210207
H           0.35945222739316   -2.45696038555440    0.09880127746699
H          -1.94197813053121   -1.84966032279856    0.58793237515575
H          -9.67929748954155    2.80402441759320    2.09682703716522
H          -7.81140785684214   -1.96067207838083    1.69300008892416
H          -9.38685455474937   -3.85135339667777    2.01675541229108
H         -11.74905441141408   -3.43986110181784    2.50456992050242
H         -12.63268093400421   -1.15668223495123    2.68987481526984
H         -12.94422319783999    1.02788259830139    2.74746930216683
H         -12.43618515014671    2.39612859840394    1.74224892949113
H         -12.08641904386675    2.39413843390559    3.48133457284465
