36
         -73.180159067013          0.000942636330
C          -0.58464989385484   -0.54557978517116   -0.49345349038138
C          -0.01913990220907    0.66621298085683   -0.06911304037590
C           0.69696883880386    0.53793697109683    1.08353820133815
S           0.69676059189890   -1.06911423073593    1.68027123425898
C          -0.29038486572519   -1.59202183348647    0.35064552568774
C          -0.71465727058069   -2.94045731319010    0.20545868905603
S          -0.34918925875953   -4.21316301437694    1.36675774665139
C          -1.31872798953666   -5.25477884688545    0.30367762007280
N          -1.75861315344908   -4.61684073234232   -0.75432853843205
N          -1.41915495768486   -3.36523821193087   -0.80518870241935
N          -1.30536305475578   -6.55997742293825    0.52122665025157
N          -2.28126547921962   -7.31823854360452    0.22959647036725
C          -2.07882751127228   -8.64741528071957    0.21886769255475
N          -0.90142524469962   -9.27536482337838    0.19147127381314
C          -3.13863828679933   -9.61002968586485    0.13621475874415
C          -4.53124623155081   -9.67084517665488    0.10618105585450
N          -5.13835862983527  -10.82897085444014    0.01760854799996
C          -4.39808639356377  -11.95603057755772   -0.03982336776837
N          -5.08340243380459  -13.10659297278096   -0.11881706912391
H          -4.58496203631478  -13.97384685913455   -0.19329137615252
H          -6.08469819513343  -13.07196103680526   -0.16559673918517
N          -3.06474778090809  -12.03604822897825   -0.02032535713754
C          -2.47510771128785  -10.85587647180258    0.06732221592937
N          -1.13466249800120  -10.58589044348767    0.09725678667796
C          -0.09317018020452  -11.47982634587322    0.03116294373193
C          -0.04789639337873  -12.85197355947547   -0.06545059690488
N           1.24460812236882  -13.25160175529775   -0.08826419440703
C           1.96962577593350  -12.16955068276912   -0.00884002368362
N           1.20516971990620  -11.05409360890664    0.06754729315623
H           1.48005441519042  -10.08677917722909    0.13656629921312
H          -1.18616695381245   -0.67322365758940   -1.37430324081931
H          -0.13644487429281    1.59693757401006   -0.59459450809581
H           1.22799526079973    1.29751084229190    1.62248195904172
H          -5.15484462109268   -8.78897037498085    0.14808792726643
H          -0.86370314598815  -13.54125673896920   -0.11678224751539
H           3.04033222282266  -12.15099012089986   -0.00309839926512
