33
         -63.934739599002          0.000665392914
C           2.95039886170305   -0.95202735175420   -0.32369670785618
O           2.30567668320622    0.28125523271093   -0.60870524239359
C           2.92285560082929    1.05469406623297   -1.48081230259298
S           2.19288972989370    2.58465485278581   -1.93923816628761
C           3.61711115842328    2.74013593939466   -3.01313054300850
N           4.43435089943047    1.73914911450363   -2.90721551705667
N           4.05473319665976    0.81107774923627   -2.05207626272842
N           3.81021361728682    3.91362708839053   -3.61239844924771
N           4.40623905886820    4.00593055572772   -4.73361657712682
C           4.72390047282990    5.25428211124885   -5.13525579679210
N           5.25507694853277    5.42696612942059   -6.34076110091973
C           4.62491374624002    6.52805778347881   -4.45857003248388
C           4.16491918696584    6.95730741778208   -3.21827506549604
C           4.23908691157149    8.30568643376251   -2.94094704443658
C           4.75936959421644    9.21505557681127   -3.86679914378307
C           5.22315737696378    8.81175354154586   -5.10154433434221
C           5.14765901051965    7.45388553082559   -5.38492050812675
N           5.50711762036640    6.71846065338054   -6.49796014125749
C           6.06372716116211    7.15621567542878   -7.67824681532544
C           6.41306227180680    6.43777040488505   -8.79094979503505
C           6.93788402998079    7.38590325272042   -9.69848604203049
C           6.86833426129913    8.59314763082058   -9.07555566495741
O           6.33598774946041    8.46404001228807   -7.84167522879734
H           2.32208345127473   -1.45146115077258    0.40991511072630
H           3.94935261641877   -0.77502468738996    0.07935773437333
H           3.03816046507911   -1.55498547078773   -1.22945565561888
H           3.76385647747531    6.25030155818622   -2.51042255018015
H           3.88854932609588    8.67420349940139   -1.98867122913488
H           4.79871454567718   10.26207033821700   -3.60628647812583
H           5.62454721758838    9.51555042290156   -5.81155691586696
H           6.30161770066233    5.38250872753811   -8.91855952515375
H           7.31508419231602    7.19115006460130  -10.68074713756301
H           7.14994885919876    9.58057729647564   -9.38060687137423
