29
         -59.855415012347          0.000679050211
N           1.58180057724673    0.11831886778952   -0.02460138651277
C           2.91948356815012    0.08810834910005   -0.06214276062564
S           3.90431590142647    1.53639750967654   -0.06402297495508
C           5.29212673335658    0.39202010053101   -0.07965780251990
N           4.90087174268233   -0.84129524050263   -0.08372057810469
N           3.61138717494401   -1.02251568111123   -0.07533154514743
N           6.50771149446482    0.94174618452326   -0.08651359440750
N           7.53065575938825    0.16179660412399   -0.09016567841692
C           8.71804481562341    0.80147039834993   -0.09590323254822
N           9.84383186449949    0.10196814998838   -0.09762397467457
C           9.03197623503486    2.21251450907797   -0.09854724507253
C           8.40067660134544    3.45140271318087   -0.09863822263713
N           9.12262051573474    4.55676851959206   -0.10179913788533
C          10.44673245184017    4.45682931940573   -0.10469462463126
N          11.17387789539051    3.35573559861520   -0.10463450966200
C          10.44702619928021    2.24593454411436   -0.10163713050543
N          10.87156011415527    0.94440396195506   -0.10085507423083
C          12.16759240346416    0.48198864056481   -0.10166407257583
C          13.32022545244421    1.21778643738485   -0.10184810856866
C          14.46068058192571    0.39159954554317   -0.10190521852612
C          14.15413544857833   -0.93350570972425   -0.10180541148481
S          12.45928972362863   -1.22412325068510   -0.10159594038701
H           1.08701860787647    0.98687391634051   -0.10725140018683
H           1.08530967921102   -0.75256140142760   -0.09466581149743
H           7.32503577992429    3.55884403543937   -0.09643319201888
H          10.99539189152457    5.38894952893961   -0.10663304341584
H          13.33087374421392    2.29165210252564   -0.10184840583239
H          15.46654843228751    0.77017083018771   -0.10191081083188
H          14.82774861035774   -1.76690908349882   -0.10179911213711
