29
         -60.284281206662          0.000864668127
C          -0.99343411687694   -0.38605527189174   -0.61908568040802
C          -0.32631941910541    0.72751597486699   -0.19195167809546
C           0.62147693435481    0.24647320081527    0.73684393033034
N           0.53973140976015   -1.05509601507625    0.86589097803168
N          -0.44104006421526   -1.44233457430923    0.04353484917074
C          -0.80679665397959   -2.75024867096456   -0.06685031510566
S          -0.05462682722619   -4.00032539147140    0.89738555742475
C          -1.19998796799795   -5.08618987589769    0.06756908656267
N          -1.94908379882946   -4.46056051980284   -0.80152839242950
N          -1.72245017525799   -3.17640686456209   -0.88076550963328
N          -1.04131228506209   -6.39447954712605    0.21014076678462
N          -2.00982279578714   -7.21270044444179    0.16048674799636
C          -1.74401817542676   -8.52152057032333    0.03905691468058
N          -0.57530487495488   -9.08400615583675   -0.31350401901270
C          -2.72939924411168   -9.54911367032590    0.19631070163937
C          -4.06984510089453   -9.72162707891702    0.53749524516814
N          -4.58600708882695  -10.93272043474020    0.57582780931076
C          -3.81283753008423  -11.98002465367626    0.29600521144844
N          -2.53927006911654  -11.97117997864672   -0.04025831821022
C          -2.02668599631088  -10.74642712569365   -0.09329482790435
N          -0.75371916902748  -10.38004461660755   -0.39806038595602
N           0.23123201722548  -11.20748905552080   -0.86732735202367
H          -1.79134104319967   -0.53691801763918   -1.31484933697870
H          -0.48411989866482    1.74228671099804   -0.49254348776895
H           1.34395704917637    0.80132148848472    1.30068595314849
H          -4.72378369821057   -8.89516037592888    0.77732235273370
H          -4.28599226325566  -12.95026730683639    0.35474154064633
H           0.14564818672856  -12.13526389474428   -0.46591003221981
H           1.14325265917634  -10.78458726418275   -0.73235830933128
