33
         -58.784517413763          0.000695727378
C           1.42924121965574   -0.03056216495229   -1.04014966058512
C           2.87149653093532   -0.03022708312821   -0.71590470833361
S           4.04700424390695    0.87738166406302   -1.67010514859262
C           5.25094355695006    0.19115832085450   -0.55660087212314
N           4.71233483410020   -0.55709175756906    0.36238924567632
N           3.40432875381692   -0.66398295098650    0.26379705484481
N           6.48791225606420    0.67760795962406   -0.59102378134541
N           7.52430140691551   -0.03522550186589   -0.42193979088314
C           8.69954423956100    0.60583946303591   -0.25876741464417
C           9.90256957297919   -0.07593969424853   -0.18141563933605
C           9.01857195389041    2.00923288263334   -0.10163102912184
C           8.24928318699828    3.16521917260210   -0.06490331826482
C           8.89070330489156    4.36940162654454    0.14658920614409
C          10.26961333688670    4.42885154494165    0.33769600598366
C          11.05327892169143    3.29073248393967    0.30299052584479
C          10.41731197985471    2.08282011433493    0.06262699128438
N          10.92897126876513    0.79068850877319   -0.01000690870660
C          12.26020986624466    0.42551768014550    0.07481111184131
C          13.35699333281903    1.09113215327834   -0.39252960745558
C          14.55872234470904    0.40071226222838   -0.12677258408751
C          14.36275085187277   -0.77134784950962    0.52731101346139
S          12.70161241026452   -1.06994521470051    0.85148616635226
H           1.02717811591933    0.97964517645209   -0.98164303751383
H           0.90728368899308   -0.66927082857142   -0.33365929933606
H           1.26997688189838   -0.39984411661900   -2.05211483244978
H          10.06920142001187   -1.13342839824823   -0.25493162201251
H           7.18041893421451    3.10956167445613   -0.19399332965832
H           8.31602980961684    5.28272742146767    0.17778825359607
H          10.73703412885885    5.38434532315469    0.52224034624746
H          12.11569091082322    3.34701762821890    0.47911255918752
H          13.30795568852185    2.01584708775996   -0.93686701925531
H          15.52674820579632    0.76334529442724   -0.42111556075566
H          15.09264284157373   -1.49014988253478    0.84109668399793
