32
         -63.039176014661          0.000680965016
C          -0.67781680320083   -0.43622715327173   -0.49981699132024
C          -0.10190185364901    0.77044300655772   -0.07341146712664
C           0.66137210235562    0.62297754120440    1.04561909732609
S           0.69396717440003   -0.99674904351040    1.60739499140258
C          -0.34397949673362   -1.49796539556472    0.30840339279752
C          -0.76546551913572   -2.84673903427239    0.15433089299331
S          -0.34404564231785   -4.13792043966977    1.27838721707500
C          -1.34829535379693   -5.16729539853780    0.23799311676239
N          -1.83648385365109   -4.51513260349097   -0.79019416764001
N          -1.50670732577119   -3.25943668683696   -0.83284809772148
N          -1.30890332339100   -6.47726588837831    0.41705128733354
N          -2.28880293451794   -7.24614064020769    0.19784903021149
C          -2.06704910181947   -8.57343479667809    0.13064114714681
N          -0.88875815255726   -9.17870996035551   -0.03593674351708
C          -3.11324884375740   -9.55325934885043    0.12715379271952
C          -4.49918981291958   -9.65539806930315    0.23179797252685
N          -5.08028125106872  -10.82908051445817    0.16797930765664
C          -4.31951117993027  -11.93217582145184    0.00442819666686
N          -4.98412700107611  -13.09953779516586   -0.02957344148320
H          -4.48178765450122  -13.95003617618619   -0.20277659532325
H          -5.98645745634809  -13.08335480165525    0.00179690064990
N          -2.99175135862233  -11.97557528049084   -0.11418798880987
C          -2.42543520328979  -10.77816918421070   -0.04788131942625
N          -1.10486411261287  -10.48126415384581   -0.14591728854126
C          -0.03407573200787  -11.40732163817665   -0.36681727088433
H          -1.31372495418802   -0.54824193778976   -1.35812530065644
H          -0.24587721416428    1.71121665010591   -0.57361521357356
H           1.20940341402957    1.37423873584815    1.57900588256724
H          -5.14181393999323   -8.79558364515580    0.35965039454993
H          -0.47234881671890  -12.39444598848675   -0.49714037162997
H           0.64385910818268  -11.40775456155233    0.48813509970442
H           0.52671209277443  -11.11971997616425   -1.25675546243322
