29
         -64.090582884924          0.000802521267
F           1.48831108751423    0.56973259739761    0.06372072988431
C           2.78857643153343    0.49990473237683   -0.09909237539974
S           3.88646159221232    1.04491922010166    1.15799414725098
C           5.14866193194647    0.50371425992228    0.02072540132589
N           4.65881210885445    0.04209541613758   -1.09782451676963
N           3.34753833900197    0.05074267764756   -1.15895128107154
N           6.40307091461513    0.84043030417794    0.27598711001208
N           7.40255977674676    0.10486490797750    0.03819682350746
C           8.63338531583638    0.64056399299801    0.07555744991977
N           8.94053975578151    1.94092987841979    0.03590144428114
C           9.83684613522123   -0.14219312598959    0.06135799318765
C          10.27081741536026   -1.46799223717861    0.07957561668949
N          11.55248247913673   -1.74157118905699    0.05305140403629
C          12.44678792257898   -0.73223449292282    0.01223830498349
N          13.73901453621910   -1.08446010535986   -0.00757082617606
H          14.44376071813258   -0.37183680518897   -0.05332865137235
H          13.97625454245797   -2.05926468142281   -0.01111944016624
N          12.16215994501472    0.57388874083125   -0.00633475508147
C          10.86573799690473    0.82115041619172    0.01883879551156
N          10.26193972018530    2.04894701186277   -0.00442540312298
C          10.91243991241741    3.25536914211819   -0.08123347725691
C          10.34724069939087    4.50117429161382   -0.11858606299708
C          11.32231848003821    5.51265915055767   -0.19306556070924
C          12.59057562940178    5.02122164650087   -0.20938748062301
S          12.64212547978050    3.30268232566034   -0.13609451608382
H           9.58978241722058   -2.30657866720162    0.11055961561545
H           9.28561223975607    4.65956928895125   -0.09325276421378
H          11.08823554382005    6.56078631250363   -0.23219252429994
H          13.50910093292254    5.57082499037255   -0.26037520086324
