22
         -43.029143012016          0.000570681796
H           0.98257646923079   -0.31575252625463   -0.02912862567935
C           2.03596096826670   -0.11950703806119   -0.03266091527354
S           2.67285159393079    1.48506786177542   -0.03396934238896
C           4.26219440463095    0.68488730976670   -0.03972914721961
N           4.15821855581150   -0.60896138946835   -0.04020861888698
N           2.92691259848658   -1.05241860076721   -0.03630977732872
N           5.33937088237911    1.48906830946059   -0.04344325830596
N           6.48952444735029    0.92543552658456   -0.04606999932630
C           7.56980896458114    1.73055755358582   -0.05015632857036
N           7.59019298283602    3.06664902962163   -0.05135423226557
C           8.91826654043082    1.22725020471973   -0.05358800810121
C           9.50882733952955   -0.03250370227625   -0.05427611157373
C          10.88522612435443   -0.09068663177102   -0.05809837592240
C          11.67207736319500    1.06839161030862   -0.06119072569930
C          11.11049645046588    2.32602440688756   -0.06062070185543
C           9.72114752757624    2.38903320893852   -0.05680436974669
N           8.85242470804335    3.44316250480544   -0.05520391120885
H           9.07735933883491    4.42717706789640   -0.05657465275471
H           8.89692926636248   -0.91968726574666   -0.05187887805868
H          11.37875121098338   -1.05079868732126   -0.05874295288032
H          12.74715647787352    0.96931054173637   -0.06409723527710
H          11.71486578484656    3.21984070557922   -0.06300383167623
