26
         -50.749220105889          0.000653052078
N           1.41472664601087    0.09561883655202    0.02270653491633
C           2.75461354808844    0.04056733017604   -0.04121945699211
S           3.76138928527192    1.47569872408053   -0.03520756813269
C           5.13059268059889    0.31252480446331   -0.06234598915992
N           4.72430175046752   -0.91414590858415   -0.07502667779033
N           3.42780671944499   -1.07700886105018   -0.06566585747331
N           6.35748981485435    0.84450326806814   -0.06909949416135
N           7.36333963444056    0.04606059206226   -0.07846430102077
C           8.58089830976926    0.63779253596290   -0.08593529627520
C           9.74451767105484   -0.10069187880903   -0.09264839882265
C           8.97199216736055    2.03813241418774   -0.08777252709407
C           8.26945590670253    3.23655932256189   -0.08369300099544
C           8.99190329801812    4.41469376456768   -0.08735267025755
C          10.38520416850830    4.41647759911006   -0.09481842319301
C          11.10552715116082    3.23569856781877   -0.09896565118498
C          10.37769782345539    2.05954273802118   -0.09540447074106
N          10.82798458788010    0.73741900373560   -0.09830728996838
C          12.09788183177493    0.36941998106584   -0.10525491779219
N          13.20301202465433    0.06767731812627   -0.11107112284255
H           0.94377009494827    0.96715966668836   -0.14041133564733
H           0.90998257005713   -0.76362734001221   -0.11287821660278
H           9.86197168444900   -1.16696388860998   -0.09331407807965
H           7.19177963385298    3.23260858028501   -0.07769509610319
H           8.46762275156226    5.35844451812979   -0.08431257270318
H          10.91412744993321    5.35731160829895   -0.09738759507250
H          12.18488079568029    3.22684670310316   -0.10467452681008
