26
         -49.903141101020          0.000857565991
C          -1.24033459449187   -0.33502604979682    0.00630406533807
C          -0.41531541504290    0.75408631654304    0.00390705856686
C           0.89111885507522    0.21778511656562    0.00473738503783
N           0.86537288107776   -1.09169214679694    0.00720489965942
N          -0.42872894527951   -1.43175268015055    0.00824745201652
C          -0.82394188738872   -2.73640227768794    0.01165332572612
S           0.32067289276518   -4.04517985067435    0.01522558237856
C          -1.12908863479504   -5.08541625638156    0.01890960672741
N          -2.23208145638369   -4.40177828767370    0.01708474841213
N          -2.07306382923297   -3.10515678936751    0.01310260306035
N          -0.91041116599813   -6.41094341924260    0.02452396380096
N          -1.93231932203048   -7.18040819526882    0.02738888359276
C          -1.69477205256649   -8.51086509539714    0.03441046510767
C          -2.73366967472316   -9.48178684818094    0.04095161224557
C          -2.07935340937485  -10.68245640051687    0.04701395984858
N          -0.50001288028786   -9.12595907608967    0.03647729038126
N          -0.74905111266934  -10.40920984576384    0.04385099460441
C           0.32566156158821  -11.35863050490731    0.04772005319731
H          -2.30435951343251   -0.44532406691912    0.00683440382508
H          -0.69207416997839    1.78777282004809    0.00198368279762
H           1.82667062476074    0.74024369418733    0.00348535426978
H          -3.78428077736625   -9.28524071265846    0.04119018288437
H          -2.44310484155701  -11.69012894647381    0.05313964372660
H           1.25945473255806  -10.80056024228255    0.04188988092816
H           0.27552051675652  -11.99659340120523   -0.83628655817988
H           0.27964161801747  -11.98472685390828    0.94040946004647
