32
         -63.008587314864          0.000821342626
C          -1.04071949664651    1.18789778007388   -0.38931798984154
C           0.25080453833855    1.12047592078220   -0.68297430539221
S           1.32321026334598   -0.21951660489875   -0.28158618554399
C           0.12959599707049   -1.28924294417813    0.44546086863674
C          -1.15129786871416   -0.99659292104025    0.63948318329531
N          -1.76699725065501    0.20367984830057    0.29024854014619
C          -3.06644101763084    0.44067667657042    0.57997221969191
S          -4.07840130352860   -0.67077898865950    1.49494782449870
C          -5.35159615160818    0.58221628721234    1.28939589236401
N          -4.92688313647323    1.60026337230853    0.60197425596050
N          -3.69085949316542    1.52712264591979    0.20003639654637
N          -6.57546533800079    0.25711154020078    1.67774734199144
N          -7.44472076565878    1.16114597063743    1.92297795177813
C          -8.71420140804548    0.75071723417742    2.14274261366074
C          -9.76053418354337    1.64515355089951    2.50717379065115
C         -10.87027802957921    0.85952933974025    2.62186468171513
N          -9.19223228645737   -0.49628601668683    2.04546469781482
N         -10.48034856400484   -0.41557836210870    2.33568482392121
C         -11.25672088858078   -1.55379884708730    2.32919530790099
C         -12.58697817284988   -1.79491846794581    2.58478909984950
N         -12.83628602135761   -3.11785323524313    2.44081980548678
C         -11.70397849791352   -3.67390784309544    2.10921270057723
N         -10.70334525081297   -2.76652963893508    2.02626559733509
H          -9.72971366618190   -2.89016977974795    1.79489744373956
H          -1.64024629728340    2.04209118924566   -0.66544090910169
H           0.74649560441341    1.91566291417706   -1.21084265768642
H           0.53237419093066   -2.24409581907716    0.73312895295996
H          -1.81265736515416   -1.71961568312788    1.09496329416799
H          -9.66619318430963    2.69982505945646    2.65245955842861
H         -11.88490567750239    1.08615065625786    2.87560160390600
H         -13.36381193811518   -1.11120003323065    2.85782666117184
H         -11.57001734032356   -4.71989480089881    1.92323693937024
