33
         -59.267218562418          0.000241604216
C           0.91076151788767   -0.86329514878608   -0.00302886343539
N           0.77551290080208    0.47879795804986   -0.00844601441055
C          -0.51152585800256    0.71369674388457   -0.00920201500191
N          -1.23251741022527   -0.42545197778908   -0.00465808574823
H          -2.23232980149446   -0.54793889051970   -0.00422086001804
C          -0.33406469062140   -1.46366056620217   -0.00051910017460
C          -0.75351202486569   -2.82332395757509    0.00461456618166
S           0.35143314875169   -4.17551577494268    0.01586606610026
C          -1.12310398315589   -5.18138116189850    0.01588856482254
N          -2.20650349929770   -4.46782608983562    0.00721846957383
N          -2.00964427891753   -3.17613369253623    0.00115963272199
N          -0.93955114973054   -6.50920249284550    0.01898754835024
N          -1.99554307072030   -7.24968637579765    0.02937438952351
C          -1.79175900995160   -8.57699899856845    0.02770445033906
C          -2.84772722154812   -9.48324787408525    0.03450336235673
C          -0.58472730774875   -9.37591208930512    0.02080920244134
C           0.76957207455244   -9.06673175170868    0.01372057035259
C           1.67643840886358  -10.10791440252674    0.01013824226895
C           1.25319358629109  -11.43593202188270    0.01353671993336
C          -0.08860932315313  -11.76519595870494    0.02068029493501
C          -1.00573540784791  -10.72417389301864    0.02432183474873
N          -2.38768613292222  -10.74673069877334    0.03201628724283
C          -3.22304944444746  -11.91522026225651    0.03611639526515
H           1.87469051678717   -1.33072739371903   -0.00153189658953
H          -0.94988331892881    1.69160214462234   -0.01294820001546
H          -3.89814588383624   -9.26400832015851    0.04004230361714
H           1.08763703889903   -8.03691779766566    0.01126439350147
H           2.73481271761710   -9.89490833133359    0.00466197693506
H           1.98975134517320  -12.22548298078547    0.01068305764747
H          -0.39722133842356  -12.80003570026726    0.02351278235349
H          -2.60327486853050  -12.80817086680106    0.03345672133991
H          -3.86435844438870  -11.92856851063462   -0.84784643853611
H          -3.85625978686669  -11.92816286563287    0.92588364137749
