30
         -60.316298516212          0.000983076563
F           1.54576892795072   -0.01402126642127   -0.97586354634796
C           2.84350811490055   -0.04009882361094   -0.77345918765790
S           3.92387353700682    0.95463350142966   -1.73854564674186
C           5.19701140864085    0.18010701664009   -0.75655444445946
N           4.72104273866736   -0.64823770633556    0.12952609679629
N           3.40948828250296   -0.76182413558350    0.11639041412515
N           6.42553206624511    0.67536185266176   -0.81796519787758
N           7.48003377820889   -0.02840302247648   -0.76659561724183
C           8.65115601186049    0.60535617440813   -0.58170409808975
C           9.85699928173795   -0.08399609106175   -0.56852901093131
C           8.97551705402560    1.99150516611700   -0.31845915764889
C           8.21402708530463    3.14726998132555   -0.19894809342564
C           8.86758592423047    4.33024371588312    0.08446543354107
C          10.24977054104562    4.37029215533439    0.26050936168141
C          11.02595098093058    3.23243482550726    0.14479376702898
C          10.37503938485579    2.04758753265357   -0.15985807794928
N          10.88145787970197    0.76187203122520   -0.32295707252380
C          12.21267154443884    0.39386788856241   -0.22377380879447
C          13.37966346662689    1.02296622686427   -0.58564140270422
N          14.43695089320489    0.23274450794591   -0.28223043681363
C          13.94771351531953   -0.84835662366877    0.25169379383254
N          12.59297385348205   -0.81312304446762    0.31047585213143
H          11.97800779720238   -1.51388153887568    0.69155413158431
H          10.00800804768828   -1.13152738421587   -0.74649113462009
H           7.14388252857232    3.10830729774976   -0.32324973940227
H           8.29960200676154    5.24302858580947    0.18049572958376
H          10.72512304625694    5.31035533264292    0.49555449758311
H          12.09249366895721    3.26639929779099    0.29825114963277
H          13.51773908825137    1.97039018297050   -1.06371086724806
H          14.52871754542272   -1.67689363680221    0.60182631295856
