38
         -72.121425955333          0.000835241244
C          -1.86591849356509    4.70036017765215    0.75011054079355
C          -0.79543109123700    5.42787913086941    0.46081507443953
S          -0.79171574768236    6.90337316710732   -0.50352369721198
C          -2.52794814138416    7.04276191622183   -0.75768676863065
C          -3.43785578085070    6.16171620375432   -0.35828261703708
N          -3.17117323899204    4.98525611132730    0.33733869092506
C          -4.15600293328960    4.11108020625327    0.64890096840042
S          -5.82896551044673    4.31041775196045    0.14092418346049
C          -6.09797217502327    2.74854593981747    0.98842145553277
N          -5.00582590085913    2.29200910093142    1.52923832403898
N          -3.94857364801339    3.03332774173552    1.36148455244537
N          -7.35208176169918    2.35815656596916    1.12893073313934
N          -7.64608303484279    1.13385662430205    1.35541085545968
C          -8.91255716986181    0.85407947902504    1.71136866814728
N          -9.85852665942823    1.71488156301443    2.07900630582599
C          -9.42069642811236   -0.48879374344290    1.80825526464326
C          -8.89030807257722   -1.75267333126038    1.57737427698822
C          -9.70164140739252   -2.84014541999046    1.81479306358275
C         -11.00999842044468   -2.68172006587496    2.28300020335484
C         -11.55602766996652   -1.43729054503437    2.51508747607249
C         -10.74956678278567   -0.33430604267130    2.25752563633065
N         -10.94788971802237    1.02367811664933    2.39454885200395
C         -12.06362918081423    1.70881055435509    2.81968933686186
C         -13.38109652066224    1.34308815982923    2.79940933393950
C         -14.21784176505358    2.35621513523484    3.30998358838329
C         -13.53229203595222    3.46346620199325    3.69589902531751
S         -11.83758425587882    3.30928246644028    3.45053448098914
H          -1.79715670760166    3.80405588843164    1.34720634203575
H           0.18147348947694    5.15248663317096    0.81513498512911
H          -2.81014919208889    7.93760400716033   -1.28253190684900
H          -4.48585131556459    6.33123089856438   -0.55798793094983
H          -7.87386922566105   -1.85785798074579    1.23445789391767
H          -9.32404765510564   -3.83798264768749    1.64996519865049
H         -11.60745698295145   -3.56078953349070    2.47324322810916
H         -12.55775664945162   -1.33615094989566    2.89863401459158
H         -13.74707420351343    0.41291810178290    2.40805209901245
H         -15.28653197838088    2.26132002732368    3.37733831695719
H         -13.92280603431631    4.37185238921479    4.10869995119968
