29
         -56.687710845298          0.000819117728
C          -1.26839408501980   -0.32104483226985    0.01255142920075
C          -0.36666420478979    0.75931482152010    0.01280116270567
C           0.88275054532120    0.20752979346598    0.01522810915497
O           0.81680117728632   -1.12768696718946    0.01652154797533
C          -0.49290616190534   -1.46070260980984    0.01488662074839
C          -0.88426451672075   -2.82998272473286    0.01571825527379
S           0.25508550684062   -4.15278446426120    0.02121847785574
C          -1.18710016323052   -5.19383359040677    0.01976875773359
N          -2.29214172852195   -4.50572256788101    0.01459847040626
N          -2.13373243228141   -3.21635657693263    0.01230417247770
N          -0.97968157902866   -6.51932845924277    0.01937906337857
N          -2.02099420618754   -7.26820265372290    0.02776495773820
C          -1.82984904056615   -8.60155130487770    0.02604274897535
N          -0.67236501295712   -9.26764860324336    0.02613694329869
C          -2.92470334140085   -9.53608096329458    0.02804933608994
C          -4.31223782850877   -9.43672259120729    0.02825922629081
C          -5.03464248637993  -10.60955376620581    0.03043254453779
C          -4.40577397144703  -11.86132587789597    0.03229728500070
C          -3.03388727791893  -11.98448026768574    0.03183916775031
C          -2.30056970649160  -10.80259089701294    0.02947486056405
N          -0.95732610193607  -10.55610076166674    0.02859777495308
H          -0.20665277800697  -11.23054964475153    0.03062506854229
H          -2.33758789752360   -0.29408560630387    0.01097763346450
H          -0.60828161221686    1.80215151037169    0.01138474014701
H           1.85945476268352    0.65010003916738    0.01614640373526
H          -4.78656633094745   -8.46900192868729    0.02684613543110
H          -6.11360078018278  -10.57222341292867    0.03079041992502
H          -5.01650060609476  -12.75173250554796    0.03411648346468
H          -2.54941814186700  -12.94867258676636    0.03319220318049
