24
         -47.304189114821          0.000148771886
H           1.07491350169940   -0.49083935264010    1.06749156730969
C           2.09162645295628   -0.26312939565694    0.82107324276714
S           3.01868210734551    0.89389796051469    1.73416595212832
C           4.34292017846019    0.46054513248419    0.63083216132692
N           3.97764482253397   -0.41114539074775   -0.26800246612961
N           2.72975550717636   -0.79814192620277   -0.15277228826214
N           5.44371130522840    1.20589773381471    0.63865140925364
N           6.61053339081968    0.74111860003279    0.48638202135924
C           7.61088144641335    1.63520875645646    0.30194203263275
C           8.92658848426866    1.23667597526933    0.18923295864988
C           7.59293043853283    3.08017113693806    0.15701534983194
C           6.58939057854692    4.04036657854285    0.17728931215865
C           6.95151472638303    5.36262101726759    0.00253729720861
C           8.28001287381053    5.73628405125551   -0.19001631493823
C           9.29554275192335    4.79741575689489   -0.21375326681430
C           8.92803937895525    3.47567597927861   -0.03760703885873
N           9.72362726379415    2.32731860213329   -0.01339200799143
C          11.03931493977339    2.31379801062121   -0.16419269658589
N          12.17674279618446    2.31812389226844   -0.29368156123192
H           9.33441713535634    0.24550103865012    0.23990494344617
H           5.56140477037542    3.75229796986757    0.32609585054309
H           6.18943053593086    6.12682907744261    0.01453033978736
H           8.52254599127777    6.77920511931376   -0.32357434146527
H          10.32706862225700    5.07774367619917   -0.36249245612515
