28
         -61.387571759828          0.000276259505
C          -1.32199930846126   -0.36743774812203   -0.01232323817959
C          -0.51525128059822    0.73334451524732   -0.01812281800526
C           0.80195852742105    0.21913471650170    0.02559613105706
N           0.79827282998234   -1.08889987377465    0.05664223326754
N          -0.49097827367537   -1.45165168075192    0.03266762806278
C          -0.85794122572923   -2.75952611487569    0.04587830208854
S           0.32075085034203   -4.04513640422947    0.08511127159058
C          -1.09732412593598   -5.11191212194032    0.02209320050134
N          -2.22682557445911   -4.45796068737515    0.01338859384305
N          -2.09639491686182   -3.16293584388754    0.03893173291144
N          -0.90895709639992   -6.42415555940396    0.19049332956632
N          -1.75405397426564   -7.25410617330811   -0.24120027318545
C          -1.56889799261031   -8.57458470073924   -0.03881140036727
N          -0.40687574714612   -9.20051736405594   -0.03104031014482
C          -2.64818074089943   -9.52967714517001   -0.00040682410971
C          -4.03824410613338   -9.57177615708173    0.01953959003064
N          -4.65454854551905  -10.73701256044755    0.06907680363536
C          -3.93155581159255  -11.84901886019160    0.11076944731042
N          -2.61482816204022  -11.95207812483991    0.10391305500925
C          -1.99923131793632  -10.78478925246069    0.04743012868691
N          -0.64813100775873  -10.52988751656004    0.00540964078585
C           0.32953157597546  -11.43082229760515   -0.03443643031193
N           1.16382295761099  -12.21179604662290   -0.05981799351166
H          -2.38388139970001   -0.49531685888530   -0.03420324108356
H          -0.80812760026650    1.76195892861084   -0.04732764390011
H           1.72758999067230    0.75853213064569    0.03521849214477
H          -4.65318739140726   -8.68326442245247   -0.01131056245489
H          -4.48127113260788  -12.77860677622306    0.15581115476190
