29
         -56.348558143782          0.000966474797
H           1.43575364626481   -0.73258239870517   -1.13544661552514
C           2.44363524581916   -0.44693314341733   -0.91388784309090
S           3.27529838645704    0.77317069926437   -1.83352153073974
C           4.65385077437308    0.40639589395095   -0.76971121127214
N           4.36211175871520   -0.49565294189850    0.12621130781046
N           3.13723227394521   -0.95462711826513    0.03733425310528
N           5.70629643317532    1.21562612969456   -0.80439367571109
N           6.90146474319751    0.81721610829016   -0.64925411068546
C           7.83928907100512    1.76833965140712   -0.47302022553506
N           9.11493508848144    1.39866404205190   -0.39991265981633
C           7.74100930839987    3.19749405735200   -0.29882909531396
C           6.69747542791448    4.11716305055811   -0.27894995977166
C           7.01714949918635    5.44186942295245   -0.07605156765549
C           8.34106720376918    5.85253766235664    0.10889679763198
C           9.39014807502573    4.95813369961005    0.09326565976235
C           9.07532666840231    3.62098455436852   -0.11702325347196
N           9.84975539069350    2.48241352446452   -0.19237635050322
C          11.21535180810731    2.32681638664390   -0.08660653836453
C          12.28636373598122    3.17696871923656    0.08028315187165
N          13.43014462756227    2.45564006788420    0.11260436978249
C          13.08536645048143    1.20550455068453   -0.02971724377071
N          11.74681425741765    1.06690598130269   -0.15586262571099
H          11.18590483492359    0.23772726511444   -0.27973332564511
H           5.67976113808379    3.79120427837396   -0.41991051478096
H           6.23303917326994    6.18340414089784   -0.05642930883069
H           8.54579509459655    6.90014757565019    0.26957385927102
H          10.40428039647913    5.28712473422494    0.24110887827922
H          12.31500550550785    4.24156636110223    0.17512215072877
H          13.76957398276422    0.38206704484900   -0.04621277204813
