31
         -60.620235341307          0.000848434772
C           0.39216814393861   -1.00949373061205    1.95310946898810
N           0.37229847506047    0.33306583513393    1.83344549447814
C          -0.59211724060897    0.60946680673142    0.99300842242396
N          -1.21177335973748   -0.50363841144941    0.55229012476022
H          -1.97885295828116   -0.59113728677507   -0.09508804249555
C          -0.59289544815682   -1.56889115420259    1.15951951170891
C          -0.99484179383514   -2.91058518506759    0.91963545226742
S          -0.26084335462889   -4.29527563072152    1.70964322314646
C          -1.44961069302074   -5.25098178436271    0.78937738986978
N          -2.19986494029773   -4.51125695140171    0.01922061255887
N          -1.94211251434015   -3.23423163094412    0.08729502748696
N          -1.31301289559749   -6.57241677478244    0.77202602114346
N          -2.29867689735660   -7.36155972159300    0.63814131553199
C          -2.00828293305618   -8.66437494303925    0.41138644185099
C          -2.99724188178796   -9.61782074824178    0.29084859182491
C          -0.73936155059344   -9.34566929741033    0.22206360671098
C           0.58777194265964   -8.93543677194567    0.23184076979498
C           1.56453942408209   -9.88828057187683    0.01265302375700
C           1.24243327477923  -11.22484476961186   -0.21368567976288
C          -0.07189654941567  -11.65604230622936   -0.22670614713769
C          -1.04545797346444  -10.69884627198273   -0.00546416308681
N          -2.43478349591860  -10.83845223941943    0.04057893652174
C          -3.08800289225019  -11.97670347159668   -0.13358043632693
N          -3.64030640665143  -12.96804699841817   -0.28635463804763
H           1.09775792832913   -1.50664918533210    2.58830826597669
H          -0.86406168865063    1.59939507197722    0.68521167285811
H          -4.06067636796551   -9.49529756105500    0.36453763775681
H           0.83737917601719   -7.90171903763553    0.40782531709565
H           2.60289806341634   -9.59349522188468    0.01613317516180
H           2.03374700111962  -11.93889190634484   -0.38190452738818
H          -0.33072959378749  -12.68933814990700   -0.40021586942830
