34
         -70.549086289243          0.000611335117
C          -6.57142199753823   -1.91445614479457    0.62235575132349
N          -6.85094580266887   -0.61122155325989    0.42740965771998
C          -5.81114249143092   -0.10327865005868   -0.18455052313424
N          -4.85285556985623   -1.02560199330771   -0.40162577223416
H          -3.95687855787928   -0.91865052327552   -0.84968610842535
C          -5.31919607311163   -2.21083771120244    0.11238208316802
C          -4.55856780248935   -3.40919155046004    0.05690889215748
S          -5.07813126133430   -4.92374445097349    0.76737758771167
C          -3.51395815574734   -5.55211761404330    0.19264895510167
N          -2.82179205270381   -4.65108256832312   -0.45507492950200
N          -3.39806838015969   -3.48803808438909   -0.53595560726886
N          -3.30429456524050   -6.85986628187406    0.26155617786340
N          -2.13026572246709   -7.34525736568280    0.32114001294989
C          -2.00138537779676   -8.68384484564994    0.20708576397881
N          -2.97343608222544   -9.58710541878216    0.10010944515830
C          -0.72795974114177   -9.34662631684085    0.20084935453053
C           0.63192041029309   -9.05416611605927    0.26132020656278
N           1.51405692829348  -10.03170853635163    0.21002711964499
C           1.08130942343454  -11.28446982539778    0.09682873423786
N          -0.16647861433410  -11.70218609342855    0.02522918699153
C          -1.05283753158204  -10.71930729909299    0.07821520000160
N          -2.42084356157291  -10.79418630352692    0.03005196858133
C          -3.20925071898181  -11.92166787426958   -0.05754635091010
C          -4.57516156258650  -12.03336968848479   -0.08151968484070
C          -4.82908144435168  -13.41967115184140   -0.17664194549363
C          -3.61067702397677  -14.02996937436515   -0.20255847894159
O          -2.62049520435493  -13.12396457426505   -0.13008491936594
H          -7.26482775831183   -2.57211683508291    1.10661812432020
H          -5.72368129304985    0.92273435776528   -0.48124034688742
H           1.00927884364092   -8.04510392174017    0.35009115770986
H           1.84360501408331  -12.05024785082382    0.05730615119131
H          -5.27690489652732  -11.22801935605840   -0.03604020470026
H          -5.78777517973650  -13.89314062307388   -0.21924633290261
H          -3.32353619658436  -15.06003786098346   -0.26807032629751
