33
         -63.107990794115          0.000497035312
C           1.14432122679881   -0.75654905020725   -0.15811997332284
O           1.50793625887055   -0.43666951664796    1.17720836270817
C           2.21414149042429   -1.35501724606674    1.80742973531598
S           2.68433054431880   -1.08150776530203    3.47691455140150
C           3.43225732731759   -2.70386469431463    3.34638948066458
N           3.29309426728025   -3.22427357406320    2.16736625346296
N           2.62705204041659   -2.47403462711496    1.31299407018934
N           4.21797594921532   -3.09877525814579    4.34632071962859
N           4.37730766203023   -4.33053389478168    4.62906875923501
C           5.34950708299527   -4.61073519865974    5.52149250633946
N           5.51096798926971   -5.86536397885713    5.92402909481113
C           6.33988909803539   -3.76837385196487    6.15132255650192
C           6.64513691689248   -2.41259082923507    6.11192609253080
C           7.69719573033619   -1.97134916803212    6.88528672676221
C           8.43437483963022   -2.85299395363505    7.68029654460466
C           8.14886853142963   -4.20150961969963    7.73261129613443
C           7.08809878692080   -4.65329647699263    6.95675724323409
N           6.53125910857229   -5.90430247972509    6.76960287431001
C           6.88211563773419   -7.12156718767298    7.31162144283267
C           6.25687651317967   -8.30949988408867    7.04093989965896
C           6.83366515713694   -9.38894101446865    7.73603764692616
C           7.87840768800286   -9.01758814588552    8.51948179194316
S           8.19102177267960   -7.32867862027838    8.43131115323225
H           0.59601977378397    0.10582897740041   -0.52974573582624
H           0.51676322841238   -1.64958718771190   -0.17917029900283
H           2.03517027539967   -0.93819151047819   -0.76219761754672
H           6.06791133296644   -1.74259673253591    5.49579580931636
H           7.96182642153515   -0.92483554353976    6.88132964299110
H           9.25166891271812   -2.46757879191364    8.27087059287342
H           8.73017507156356   -4.86453629263434    8.35173729739209
H           5.42319917538636   -8.37855780780563    6.36844459395474
H           6.48399112749861  -10.40191679790053    7.65508828515232
H           8.49451306124269   -9.62667227704602    9.14964860159594
