33
         -63.591404487306          0.000481115972
C           2.29031985810182   -0.82262412064498   -0.64183525853227
O           3.44672481007512   -0.26590704851132   -0.03277690393102
C           3.79267863231200   -0.80219888384445    1.12097160889366
S           5.23235716375842   -0.22323264504720    1.94040903072536
C           4.82769782365731   -1.47315036578822    3.15698306164422
N           3.73907730325649   -2.11510864094609    2.87033281200756
N           3.16096557383043   -1.73808471355794    1.74818234855025
N           5.52723946544263   -1.47344263508194    4.29098225070891
N           5.70062145778601   -2.54256925452171    4.96338883385728
C           6.26675918513539   -2.39397859402265    6.17795128878389
N           6.55122518944316   -3.48269454266000    6.88571464018501
C           6.64267575627481   -1.21940445565536    6.92878974893668
C           6.58096154368960    0.15239154466836    6.70618992272995
C           7.05838908937518    0.98236151566265    7.69685253067702
C           7.58556136353207    0.47003773278693    8.88660115380421
C           7.65409281487967   -0.88542260665012    9.12874541573275
C           7.17559661965211   -1.72840909476196    8.13288558503853
N           7.08924869050272   -3.10084902410263    8.03749451013357
C           7.45765947947602   -4.08118808817344    8.93381938655636
C           8.07535597989989   -4.10000772271733   10.16465386037863
N           8.18470348454894   -5.37932524831591   10.59188782153644
C           7.65785367756740   -6.12754908282050    9.66229529549305
N           7.19783884311328   -5.38968412902260    8.62704517904769
H           6.75039026873151   -5.67712464238728    7.77000855348948
H           2.15108427951708   -0.27266648709434   -1.56951967680613
H           1.42307696148701   -0.70553108422074    0.01068124970545
H           2.43912568308426   -1.88530736119256   -0.84257197042566
H           6.17284780514827    0.53643816840324    5.78552528285642
H           7.02706452482672    2.05244236102142    7.55851635741875
H           7.94805945285356    1.15693402376710    9.63638604601672
H           8.05886537717732   -1.26693005583602   10.05046035431913
H           8.44706330870707   -3.29545618990713   10.76281082997366
H           7.59088853315686   -7.19540862882515    9.70324885049420
