28
         -60.920111123456          0.000581947920
N           1.55488474107037    0.16838509169691    0.08441768346958
C           2.69805561582665    0.09037377108385    0.08122609807452
C           4.09837710041899    0.03116047651656    0.07502651494095
S           5.07348450049524    1.48171002881173    0.07677829800990
C           6.45123996034166    0.35980064520076    0.06803473187559
N           6.07731885251809   -0.88885871054641    0.06437143478104
N           4.79603643701645   -1.06998198690052    0.06826017680379
N           7.67031844144924    0.91696285905792    0.06403956393204
N           8.68790005911314    0.12924534915183    0.06271776565616
C           9.87864822258748    0.74965482921006    0.05710406975360
N          10.99951915365255    0.03382356525264    0.05481255957043
C          10.21256105160291    2.15655911005875    0.05392856240444
C           9.59820426721831    3.40556530426253    0.05444393662986
N          10.33735518293217    4.49784938138921    0.05085196772262
C          11.65947586904606    4.38056638580873    0.04690976561526
N          12.36894758812855    3.26683978112908    0.04616530872255
C          11.62516636962808    2.17060909201148    0.04973538604446
N          12.03242272366408    0.85685934286063    0.05037385545627
C          13.32410577205789    0.38707620525949    0.04764632018153
C          14.48078117248834    1.12149258391498    0.04317473154060
C          15.61700730807036    0.29342830448551    0.04194175714072
C          15.30539452848863   -1.03255224755236    0.04541400198100
S          13.61314680522369   -1.32058884012084    0.05032270422676
H           8.52457919303506    3.52990496690025    0.05771441910275
H          12.22208086530813    5.30387707079576    0.04417447455828
H          14.49399753346720    2.19539229566898    0.04101615291397
H          16.62411756375674    0.66811499953679    0.03864713067961
H          15.97895312139392   -1.86624965494434    0.04539062821172
