25
         -46.186479203597          0.000369518621
H           1.27176394719986   -0.46982038343806   -1.25703856248402
C           2.28232915445230   -0.23144593383403   -0.99596514638963
S           3.20848763466861    0.93714804953812   -1.90014991501573
C           4.52302742909644    0.52800765127681   -0.76782793791810
N           4.15498429636890   -0.35054425250548    0.12190289546419
N           2.91246509747365   -0.75942889747213   -0.01481071103336
N           5.60989624089367    1.28910165968385   -0.76290835471411
N           6.78662381648536    0.84194148922503   -0.58477334355404
C           7.76972476215955    1.73257326643717   -0.37555624401693
C           9.10090009816769    1.33760998335592   -0.23515513987226
C           7.76227910362079    3.17042278675766   -0.23252083337842
C           6.76984943078637    4.14262159147067   -0.28246683249458
C           7.13821158568524    5.46063707766459   -0.10181842160296
C           8.46597166356981    5.82221212444165    0.12947076753295
C           9.46997347467654    4.87583167062368    0.18307274166970
C           9.10204501240515    3.55117673762036   -0.00206516279281
N           9.87654679170970    2.40889403582547   -0.02080052168825
N          11.23754987552513    2.39862428754300    0.25080668708099
H           9.49825934119673    0.34139975720467   -0.27238507565448
H           5.74400065398327    3.86226355785544   -0.45908714053558
H           6.38512673606227    6.23330388486015   -0.13679265942066
H           8.71222918778448    6.86361883481968    0.27121120825016
H          10.49477179119928    5.15505053857054    0.37432003267429
H          11.72544243885939    3.07588243335546   -0.33073382286054
H          11.61666043596992    1.46878804911966    0.10128149275395
