31
         -60.607159687041          0.000783209602
N           1.76820908325886    0.18098360906226    1.30203895155994
C           2.88471700498950    0.14401626341887    1.03974097024802
C           4.25162646784771    0.11726859399340    0.75235585639531
S           5.42501767826747    0.93578802748312    1.79764238040982
C           6.63257746984785    0.28350889233800    0.67090499387039
N           6.09150721393488   -0.39941912933084   -0.31587714386387
N           4.79801949265232   -0.47901355408412   -0.25721802733199
N           7.87116362961973    0.72911609941202    0.73030041616997
N           8.93079672679835    0.04670013783377    0.64601414599026
C          10.09396788533183    0.68812690032862    0.44552229110343
C          11.30611483953539    0.00896319268675    0.41912052766817
C          10.40179205120831    2.07642929987344    0.17464328212285
C           9.62807732792426    3.22402399614109    0.05674432612582
C          10.26726759088023    4.41178576468138   -0.23910041118731
C          11.64717538246178    4.46425409596191   -0.42862655381950
C          12.43524793793878    3.33439310858527   -0.31590088187342
C          11.79880829552958    2.14469725447180    0.00026315963124
N          12.31865251358717    0.86408366911184    0.16092810703312
C          13.65365983969497    0.51098218224573    0.05525481188882
C          14.81381898858020    1.15459107581786    0.41499745371859
N          15.87950326172575    0.37822272185656    0.10712913168001
C          15.40261659796972   -0.70947577984503   -0.42392372793265
N          14.04741605860565   -0.69119962429056   -0.47987799714437
H          13.44068704869980   -1.39964395041381   -0.86065903546253
H          11.47055040433653   -1.03629298828339    0.59843401939414
H           8.55923125964982    3.17833884420308    0.19042272824972
H           9.68917515367095    5.31818162066956   -0.33475439977525
H          12.11075323408416    5.40771686024768   -0.67266175323186
H          13.49973038311731    3.37687019042385   -0.48062744852587
H          14.94025930692748    2.10369348799116    0.89328491907088
H          15.99279987131961   -1.53070086259594   -0.77558509218291
