36
         -74.347092199172          0.000704329373
C          -0.65818895232236   -0.50766260893411    1.04400082441861
C           0.07471525393672    0.58822626722147    0.55082003903937
C           0.75884148986858    0.12669282127682   -0.53650671348935
O           0.50241974873591   -1.16912384644778   -0.74846068290440
C          -0.36202113295819   -1.56542125178545    0.21160892100449
C          -0.81692870021837   -2.91326587351191    0.24484010332059
S          -0.33489855194766   -4.10864657690813   -0.95070050789509
C          -1.39956983715556   -5.21156645310758   -0.04980902299254
N          -1.94553799845030   -4.63626642653189    0.99592050147425
N          -1.61528569200090   -3.39050266442262    1.15581316087652
N          -1.34485725703025   -6.50221017043990   -0.32759482351350
N          -2.32248944879929   -7.29582256901655   -0.19732843967873
C          -2.08341416564357   -8.61972996225424   -0.19791165934810
N          -0.91610452885961   -9.20842974255011    0.06092965908327
C          -3.10365033970722   -9.61614692555171   -0.35522065731449
C          -4.46734265776075   -9.72193609436351   -0.62093084563792
N          -5.03866264911591  -10.90084612868551   -0.68483294064792
C          -4.28528434138217  -12.00363568134847   -0.49579738981949
N          -4.92436185412680  -13.18018817949763   -0.58868208296491
H          -4.41667449024845  -14.02716597221459   -0.41243865957935
H          -5.91638838782651  -13.18394311607201   -0.73649069887455
N          -2.97577278336841  -12.03959518442318   -0.23726949299698
C          -2.42282164178428  -10.84225697546571   -0.17443860534769
N          -1.11340970746136  -10.52761944039584    0.08381703457510
C          -0.07003736160724  -11.38063950184754    0.36543504693929
C           1.24616949101459  -11.09317401749758    0.61657090219110
C           1.86263281567704  -12.34574601844722    0.83453105023480
C           0.88269193538750  -13.28194950897842    0.69909465051646
O          -0.29781961244754  -12.70138447351828    0.41357734257843
H          -1.31460801212381   -0.54109003324029    1.88803266401667
H           0.09353688696550    1.58253596899047    0.94708288422672
H           1.43549165671579    0.60907856488140   -1.21372530603299
H          -5.10067059383045   -8.85983490640829   -0.77639445292751
H           1.68713121427137  -10.11958634448867    0.63749285733583
H           2.89401049858738  -12.52082878562046    1.06010897193590
H           0.89286970701705  -14.35034818839325    0.77700636820070
