32
         -59.482497103489          0.000843597364
C          -0.92653053780111   -0.40118010832248    0.55550837887268
C          -0.19221114457317    0.67693920838360    0.14148982344641
C           0.76237457938624    0.14232244339901   -0.74671741892364
N           0.62230601649842   -1.15696085110221   -0.86658595145547
N          -0.40267681110122   -1.48698209750554   -0.07613051290473
C          -0.83014728278866   -2.77946792490254    0.03793717817659
S          -0.10755542314111   -4.06537496839900   -0.90739546610359
C          -1.30867438297645   -5.10249948992064   -0.08522990374930
N          -2.04881878243921   -4.44355333373568    0.76164748043023
N          -1.77761766479111   -3.16009949128523    0.83036515639500
N          -1.18235487037467   -6.41637907173716   -0.21210408827554
N          -2.16597901399312   -7.22322716659801   -0.24758659519994
C          -1.89204932525913   -8.53518442292321   -0.16054716377222
C          -2.88767949169468   -9.50760175863677   -0.26258297352399
C          -0.65276917923005   -9.25125207732515    0.03955729913373
C           0.67317855221525   -8.86439587717537    0.19698366748168
C           1.62439342678791   -9.85073277748873    0.36412735194058
C           1.27923157996438  -11.20265945935278    0.38002976452181
C          -0.03020984158214  -11.61237630978932    0.22494958968127
C          -0.98678865874173  -10.62242632822247    0.05418608068522
N          -2.34938041248790  -10.72857682551049   -0.13978411029698
N          -3.03637102004644  -11.93404094216258   -0.10955385836651
H          -1.75527246582126   -0.50637014835121    1.22387204603184
H          -0.31319305516278    1.70153422037351    0.42647705305461
H           1.53132033991829    0.65480360503816   -1.28896503769383
H          -3.94095710889090   -9.35782104742939   -0.40472628169030
H           0.93867160386249   -7.81972033497120    0.18543441779459
H           2.66055832858580   -9.57466460653531    0.48817148187042
H           2.05249019022004  -11.94315218410711    0.51788342766766
H          -0.29873781069057  -12.65728765595594    0.24851340620594
H          -2.62898063903567  -12.59713148182463   -0.76479865386745
H          -4.01635969481378  -11.78300073592813   -0.32784558756651
