26
         -49.437845009205          0.000605359590
C           1.41527594451458    0.15305744901541    0.02522782584279
C           2.89380506368087    0.11610539897645    0.02416238980458
S           3.87755086139426    1.55896590809252    0.02438431563774
C           5.26066192660488    0.44058931015909    0.02400631213492
N           4.88530420931920   -0.80008511166207    0.02314386509985
N           3.58984283982435   -0.97458177985076    0.02319269894297
N           6.48195218160640    1.00220117205794    0.02267183854294
N           7.49934058768880    0.22403427853860    0.02843004748965
C           8.69725404287294    0.85446872755819    0.02590525013204
C           9.01615495129265    2.25061268013766    0.01867179333033
C          10.37584014439873    2.29087293604433    0.02106276706415
N           9.81762534104136    0.12982104303403    0.03196336249391
N          10.81309829212820    0.99380955931820    0.02900855237542
C          12.12139624378604    0.56121319144868    0.03429499507830
C          12.55435605463936   -0.73490537376212    0.04131408389368
C          13.96075328336424   -0.82257393580319    0.04568544430551
C          14.56884799016544    0.39163465791423    0.04204340995710
S          13.44051991370832    1.68914261579161    0.03301868833187
H           1.05759294207841    1.17844508419356    0.02172824354951
H           1.03586961260852   -0.36156310830128    0.90692917844423
H           1.03443372597272   -0.36837288414473   -0.85179369545379
H           8.31635676288967    3.05909454758841    0.01301827815249
H          11.06877605885504    3.10842362133351    0.01795843120195
H          11.87803239976385   -1.56853738195855    0.04310464824419
H          14.49779675620859   -1.75340734540094    0.05134813846966
H          15.61667186959258    0.61571473968130    0.04406913693400
