24
         -54.978959208053          0.000377970925
C           1.59413117029805   -0.73206963051647    0.47802166697864
O           2.63055683401573   -0.26104774106343   -0.37585050361608
C           3.14646364396699   -1.14718904589587   -1.19486857907113
S           4.39079217043249   -0.66622786367286   -2.32581851162347
C           4.32427238132653   -2.36766010461416   -2.85748525846711
N           3.47127611877027   -3.07128711466208   -2.17865279466158
N           2.82595298308369   -2.40616054648171   -1.25548650436769
N           5.22323993397601   -2.76546833080552   -3.76717860380065
N           5.03661803390215   -3.86359014129198   -4.37517757925757
C           5.93451752205477   -4.26399580439743   -5.29430371897722
N           6.74372510272773   -3.48316080418822   -6.01028122439396
C           6.04733046072272   -5.61889836922924   -5.75757881366752
C           5.54558152246535   -6.89036209104176   -5.48832694211644
N           5.95106509777137   -7.91968450153412   -6.20332782534987
C           6.84813331763106   -7.72823125376252   -7.16660511149220
N           7.41526930774694   -6.59332444250222   -7.52302165586850
C           7.00134615397407   -5.55733357507879   -6.80991910219938
N           7.35044158475255   -4.25427908034191   -6.87834080429515
F           8.14140768866985   -3.68276307208928   -7.82448728194195
H           1.31081228293622    0.11808923626787    1.09364058806149
H           1.95548125408441   -1.55486937244146    1.09691874714673
H           0.74451087018997   -1.08003711033291   -0.11205961623910
H           4.82062073087695   -7.07822673179149   -4.70881779239130
H           7.14734383362419   -8.60579250853232   -7.72224277838902
