20
         -41.126204430702          0.000987482944
N           4.00122605842831   -5.11610700187125    0.25620862979080
C           4.72431537232417   -4.24849403306166    0.05442443558152
C           5.62446950143192   -3.20093223106350   -0.15637860540293
S           6.88956903328710   -2.82496400609346    1.02852866767797
C           7.30413600384398   -1.50378698713084   -0.07964804359172
N           6.54871316625732   -1.48739497528272   -1.15934935238676
N           5.64579166769726   -2.41676224270048   -1.18426091719303
N           8.44012324842636   -0.86306200204600    0.09151131212216
N           8.65411518425182    0.36770055668726    0.14173078811812
C           9.93042070408309    0.81348071844616    0.10552053009083
C          10.28579423006250    2.17920157812855    0.26566354071211
C          11.64732771685286    2.19182752905819    0.13095035194791
N          11.03320095329104    0.07732224306294   -0.11307327079162
N          12.03684033170768    0.91135840768449   -0.09530569428274
C          13.37581482872809    0.44673586740641   -0.31212071079313
H           9.61905765452697    2.99368555122702    0.45132401109642
H          12.35598714069746    2.99374285975640    0.17520054267428
H          13.33983853369963   -0.63557148894873   -0.42038619594617
H          14.01169811531813    0.71036288877661    0.53463367079481
H          13.79078055508514    0.88973676796690   -1.21951369021633
