36
         -73.153118301967          0.000432619789
C          -1.76985752342413    4.48221612696221    0.13478318737980
C          -0.70134382423330    5.20577158101245   -0.17349117694936
S          -0.65994599370060    6.95979233047147   -0.31695859777322
C          -2.33526885690833    7.28882706873458    0.09950186774169
C          -3.25541025172010    6.37278182268249    0.38148406128439
N          -3.04410144373388    4.99561836498183    0.39795069684393
C          -4.04846947675580    4.13308573221092    0.66474298642884
S          -5.70333535240536    4.62401847178801    0.98368056621097
C          -6.02423311907609    2.86131493688656    1.13009463362942
N          -4.94579205073521    2.15530098804431    0.95458677579774
N          -3.86671418245532    2.83177740966780    0.71349089174906
N          -7.24768733649302    2.51877278141156    1.50301843911750
N          -7.61303783430297    1.29001556973205    1.42352077085632
C          -8.86112630578251    0.99886655230927    1.83588142280808
N          -9.85096986796958    1.85452035222367    2.08182754305667
C          -9.34179445516218   -0.34938913613578    1.98037621825605
C          -8.90170452692453   -1.66408891068574    1.88809339188305
N          -9.74109872701507   -2.65692121475230    2.12252667529577
C         -10.99631730905132   -2.37680675861451    2.44854600891600
N         -11.54985918967166   -1.18456672908968    2.57718262138543
C         -10.70195731078912   -0.18616812150739    2.33916683098072
N         -10.94723075471586    1.15427074029076    2.37368746984921
C         -12.16187447884798    1.74594869852965    2.64392011338865
C         -12.56392737848842    3.06019192122570    2.70646135292448
N         -13.88059934636908    3.10486227874234    3.01469078430235
C         -14.27499610083892    1.86696369676954    3.13788057900251
N         -13.26683621094921    0.98919017365072    2.92187519992110
H         -13.25509191351704   -0.02328776737803    2.94680533421398
H          -1.72370601150944    3.40603621414416    0.20473738548810
H           0.25033367209417    4.74219493131078   -0.36300956978114
H          -2.57329860173229    8.33758450099229    0.11019863456637
H          -4.26428111835689    6.67082951970436    0.62688834507203
H          -7.88681982884892   -1.92555151979444    1.62396032084121
H         -11.64335973735205   -3.22383100802046    2.63230455675769
H         -11.98330993839729    3.94437243628229    2.54862688934035
H         -15.27376731386091    1.56618596521636    3.38038678921411
