23
         -42.778200981419          0.000834269109
H           0.97236122443256   -0.30153758474273   -0.06486125474989
C           2.02579237042862   -0.10656648455270   -0.06687255899921
S           2.65936999448201    1.50263260033072   -0.07113573889307
C           4.25277234847095    0.70374690890637   -0.07207723886267
N           4.15120009819444   -0.58793964309152   -0.06916622686794
N           2.91763071116251   -1.03466517077950   -0.06630277154001
N           5.32768090802392    1.51084287533266   -0.07465130993995
N           6.48445217597628    0.94541640579458   -0.07688355679794
C           7.54890567554442    1.76688590734257   -0.07870083211498
C           7.61783312334329    3.16196849787395   -0.07950200544276
C           8.91273526255306    1.29728876013494   -0.08044101641471
C           9.49422944126651    0.03539936074818   -0.08047465294128
C          10.87235251786418   -0.04480745181021   -0.08228641509551
C          11.67012533051027    1.10039261326554   -0.08403956242620
C          11.11345097426263    2.36427682819568   -0.08403501762138
C           9.72943465440843    2.44746191392748   -0.08220361381713
N           8.90516339344098    3.55118919085092   -0.08165766159342
H           9.22612304822570    4.50685228656978   -0.08280127999389
H           6.80524955278717    3.86285389634869   -0.07885641930657
H           8.87281373594776   -0.84531385686062   -0.07910285564896
H          11.35034825264760   -1.01280837010325   -0.08234671008133
H          12.74454341347088    0.99524723134385   -0.08540653588464
H          11.72946179255581    3.25107328497460   -0.08536476496660
