27
         -61.030623955440          0.000941447099
C          -1.25557144991716   -0.31958866871445    0.00611928663540
C          -0.43442585436091    0.77032953956024   -0.00064577719607
C           0.87631574842037    0.23766184044694   -0.00496570973019
N           0.85548768668318   -1.07021626533028   -0.00123613216960
N          -0.43882671430913   -1.41582730127224    0.00553819717224
C          -0.82381577862257   -2.71929411619922    0.01085486024232
S           0.32407714357718   -4.02020148229346    0.00924723079710
C          -1.11932583699933   -5.06674309466160    0.01813440291300
N          -2.22918372055973   -4.38609186900944    0.02147041904967
N          -2.07666995744079   -3.09612900881422    0.01765873920541
N          -0.90156083641798   -6.38785166068848    0.02191532045965
N          -1.91617188264989   -7.16705716779038    0.02513023041762
C          -1.66359852283285   -8.49304349146205    0.02822930192240
N          -0.47140921250229   -9.09364332440778    0.02123536973457
C          -2.69521368905379   -9.49134113998363    0.03744219629849
C          -4.08576629859782   -9.60136734800867    0.04724006898125
N          -4.64789037073972  -10.79145741932944    0.05335546538157
C          -3.87726547269565  -11.87634634087625    0.05023380581342
N          -2.56075038048163  -11.92565049210646    0.04148638729971
C          -1.99618803481792  -10.72814310154024    0.03520834446306
N          -0.68999785659235  -10.37843765648274    0.02541949135435
F           0.36977448140912  -11.22875722140973    0.01804777116623
H          -2.31919268809359   -0.43314010506404    0.01120456280908
H          -0.71324193233061    1.80329564475274   -0.00229059142691
H           1.80934924237128    0.76429305205213   -0.01062153228427
H          -4.73827579503786   -8.73982915016522    0.04989358061771
H          -4.39033201740742  -12.82774265120199    0.05585471007285
