29
         -60.688689507182          0.000470877194
H           0.89853101831523   -0.08487636655031   -0.29132178629335
C           1.93549146803198    0.13039797170373   -0.13373241652729
S           2.92508073537530    0.84170412454203   -1.37556019375431
C           4.24265975327090    0.68904111316917   -0.18964079230112
N           3.83057578076641    0.19320753978098    0.94777991556487
N           2.55514121379907   -0.10291654699335    0.96510283859207
N           5.39126872945166    1.29724236113792   -0.44385194977698
N           6.52570837914206    0.83221000346877   -0.14182311302005
C           7.59693352099374    1.64593207475453   -0.18792172938005
N           7.58132983747994    2.97812503007445   -0.15035110550935
C           8.95202980159544    1.17687611091855   -0.16561568666996
C           9.67473970829172   -0.01500885436793   -0.18558573777732
N          10.98507269726261    0.00746949470156   -0.15656459178150
C          11.61894302425629    1.19797729507074   -0.11338343013038
N          12.95927600294046    1.15272312711592   -0.09201677422521
H          13.47885607980532    2.00916233224962   -0.04053360838111
H          13.41548332141814    0.25947734994336   -0.08458710314206
N          11.04705890638471    2.40468250919709   -0.09554589087195
C           9.72797832964532    2.35784689958007   -0.12185283515859
N           8.84247901009225    3.40568460704685   -0.10232780088491
C           9.11623545137716    4.75258329605530   -0.01722118910330
C           8.25246982591276    5.81631358179146    0.01418625344549
C           9.07787076680899    6.95958473582455    0.10102717365585
C          10.36135870222174    6.50328869907622    0.11429229325767
O          10.39254906030772    5.15970838194887    0.04292872061006
H           9.19983620448298   -0.98545342710441   -0.21965557678593
H           7.18525204280111    5.76462199140974   -0.02018582489179
H           8.75622830322551    7.97923033591551    0.14658384490574
H          11.30386232454461    7.00967422854048    0.16867809633608
