37
         -69.753561219784          0.000766495580
C          -6.14055635747594   -1.66142683848894   -0.78709672769204
N          -6.42627804310065   -0.37101846290376   -0.51516079610493
C          -5.55244542341974    0.01338524613178    0.37905043016678
N          -4.69821675692686   -0.97696955441234    0.70857420394474
H          -3.93099673830753   -0.96734677826470    1.36149109357079
C          -5.05797817650763   -2.07454884144455   -0.03383598693770
C          -4.35743946844639   -3.30884257699988    0.06023391339312
S          -4.75620515915725   -4.72241104221539   -0.90333354252628
C          -3.37293804018982   -5.48305247694832   -0.07234075154154
N          -2.81114478996348   -4.68649290077174    0.79432397106782
N          -3.35715138761395   -3.50104525102685    0.86787482605363
N          -3.19220890767490   -6.79019816250074   -0.22086139031720
N          -2.03705646087012   -7.32610138936407   -0.18610931805649
C          -1.97620594244631   -8.66998367493544   -0.11935612232256
C          -2.98214024803071   -9.61909915588129    0.01625574395313
C          -0.73466861068463   -9.40192276949988   -0.15789415297378
C           0.59036444809388   -9.00407678217037   -0.27278428867893
C           1.56496410259263   -9.98116439645973   -0.27465118812475
C           1.23164427686243  -11.32999034264278   -0.16413010107484
C          -0.08124735229437  -11.74649568484957   -0.04777028754726
C          -1.06444980646156  -10.76811685232737   -0.04567283302420
N          -2.45087056807088  -10.86664312776951    0.05827095801758
C          -3.20202343444249  -12.01921793550773    0.17359223656916
C          -4.55983387024397  -12.18707872578342    0.26789363466498
C          -4.76734290126517  -13.58354673712840    0.35546193669114
C          -3.53583119193632  -14.15559823952741    0.30810878141492
O          -2.57846220225398  -13.21215346212867    0.19789247792263
H          -6.71263825578040   -2.22590143537466   -1.49572523729210
H          -5.51195162848052    0.99565580334660    0.80596141414501
H          -4.03885466512116   -9.45140615900846    0.08258478322144
H           0.83166554303932   -7.95674467068183   -0.35469478302758
H           2.60405241281276   -9.70189571671546   -0.36186871945124
H           2.01772095073924  -12.06990213177929   -0.16816688663774
H          -0.32225966152232  -12.79264908418981    0.03862436144862
H          -5.31344932408066  -11.42842084478648    0.27498408178565
H          -5.70883573126378  -14.08478719776062    0.44057195592064
H          -3.21063063010638  -15.17549164722935    0.34149230937834
