25
         -50.162220091249          0.000567897839
C           1.48072560044127    0.17204368925906    0.20347219565783
C           2.94925699164772    0.14495277167433    0.04654419931213
S           4.02164755426818    1.11090447972453    1.05431587925535
C           5.33230872935642    0.33804818115146    0.13830570836389
N           4.88790395408698   -0.47007091889131   -0.78125069623838
N           3.58093097321937   -0.56061614157389   -0.82343344060320
N           6.56334535467649    0.81886477166618    0.29054944551922
N           7.60113689017006    0.09143242018194    0.18638009550284
C           8.77549132588298    0.74860841016245    0.13156158045018
N           9.92101469317143    0.05976580057140    0.14819421444234
C           9.07066566268885    2.15296720024167    0.02296686447511
C           8.43796139569079    3.39325855342730   -0.03239568066827
N           9.15846137501151    4.49407268563419   -0.10691919066186
C          10.48589872112103    4.40210158891221   -0.12892715511323
N          11.21710872905885    3.30643399301893   -0.09171389071301
C          10.48654487419500    2.19890036271067   -0.02521490298330
N          10.91516800106827    0.91058953538898    0.05160083283417
N          12.21156172317203    0.48216378732004   -0.05546420466504
H           1.10021498620764    1.17860331031372    0.03626537513811
H           1.20409080621458   -0.12980600253091    1.21248760783248
H           1.03423273058744   -0.50901591887523   -0.51535883711786
H           7.36275951649391    3.50406924166211   -0.00981969988622
H          11.02673247267675    5.33676976221883   -0.18127613072628
H          12.84924157291588    1.14745188442595    0.36964110569680
H          12.30060536597638   -0.45959344779424    0.31106872489588
