37
         -68.902496858460          0.000242691607
C          -1.24638825461056   -0.38621581131450    0.00532087799838
C          -0.42087146074333    0.70325675037187    0.00410588265776
C           0.88464500113900    0.16680834660205    0.00520179624496
N           0.85813380442821   -1.14340824098473    0.00735385042200
N          -0.43556706824876   -1.48215052630407    0.00724962042016
C          -0.83470326430881   -2.78643830269541    0.00892109847920
S           0.30790332776598   -4.09919479535294    0.01123624520396
C          -1.14653149906384   -5.13585733694095    0.01262935912329
N          -2.24721005067149   -4.44951937441625    0.01094868911891
N          -2.08237278231947   -3.15140003053608    0.00883829579772
N          -0.93587810119795   -6.46016072113062    0.01370646418265
N          -1.97321600461723   -7.22494706023635    0.02042205076627
C          -1.73594228379998   -8.54800581729063    0.02188205416491
C          -2.76337621484654   -9.47529675802015    0.02912181964456
C          -0.50840268674880   -9.31590065883594    0.01974641114485
C           0.82735665424020   -8.93925182295841    0.01312718406245
C           1.78686913330924   -9.93168013630638    0.01478029147686
C           1.41970026462967  -11.27324578424420    0.02496888299386
C           0.09286597624015  -11.66507977650064    0.03212343442529
C          -0.88167681433157  -10.67843372810276    0.02751028635715
N          -2.28005152612779  -10.74245717071694    0.03186535914567
C          -3.10632583064208  -11.85224577058882    0.03813409287451
C          -2.81439692333260  -13.18782793316732    0.02081493974734
C          -3.96652633456430  -14.00241611621876    0.03502756994872
C          -5.12080759727396  -13.29287140633204    0.06196092433185
S          -4.83555410159998  -11.59966418549022    0.07180137239855
H          -2.31048272249075   -0.49631423556878    0.00510303369213
H          -0.69821961068689    1.73680150712266    0.00248711270487
H           1.82059628845317    0.68855526787499    0.00478899938022
H          -3.81667897525711   -9.27143950705512    0.03160869940440
H           1.08866782680616   -7.89380559424550    0.00711270653430
H           2.83364119241086   -9.66857764633209    0.00912570462237
H           2.18710957800935  -12.03274297469157    0.02773974516061
H          -0.14056579921650  -12.71510026577243    0.04286628948590
H          -1.82767566250403  -13.60392256529117   -0.00408802573451
H          -3.92645306839952  -15.07650251326884    0.02513165892595
H          -6.12965440982803  -13.65290730506097    0.07623522269191
