24
         -51.459216474807          0.000418844091
N           1.76014026451104    0.18102608124960    1.47632724837751
C           2.86326323601179    0.15005979522976    1.16326570327581
C           4.21621315889416    0.13091480007182    0.81383778754090
S           5.44689246742375    0.84519022263441    1.86834350450849
C           6.59301291804427    0.27301572591226    0.63941882232519
N           5.99918268532304   -0.31709982208819   -0.37462132050198
N           4.70859773000205   -0.38496424032997   -0.26489099705497
N           7.83980113566038    0.70196791374014    0.68065803582777
N           8.88841513513827    0.02006502602843    0.52152090731260
C          10.05253789846392    0.67269934950844    0.34581919151409
C          11.26185902580464   -0.00820017804518    0.22640861304094
C          10.35406127759873    2.08244453365564    0.20451817168266
C           9.59059784930242    3.24395185867301    0.23234569314717
C          10.23526880078899    4.45331107674302    0.06036194632701
C          11.61419794127509    4.52677450327822   -0.13921240212891
C          12.39814383757099    3.39003213331856   -0.17161206784486
C          11.74941254789530    2.17850400710895    0.00381500341176
N          12.22720396993129    0.89481522467511    0.02858280808457
F          13.54192172596128    0.56890450316582   -0.13307722439635
H          11.45675911779999   -1.06122591699195    0.27065617001233
H           8.52468670805919    3.19209049322750    0.38483351766370
H           9.66120957229926    5.36691771388305    0.07990507420827
H          12.07755627336246    5.49212696730567   -0.27109872095654
H          13.46463472287794    3.43692822804557   -0.32607546537676
