31
         -60.960974900621          0.000622910279
C          -1.25039486883044   -0.28766917156182    0.01262856949031
C          -0.34770076369510    0.79168147462237    0.01241180832384
C           0.90145187401325    0.23913861553413    0.01635666740640
O           0.83466171944414   -1.09602779967655    0.01935648463962
C          -0.47530908334487   -1.42780057205047    0.01684183407107
C          -0.86888749314863   -2.79547285668514    0.01851686430300
S           0.26867820974881   -4.12239190448015    0.03001737964272
C          -1.17492511465503   -5.15816055985872    0.02547386896590
N          -2.27897841785964   -4.46988677391668    0.01512445930305
N          -2.11750351584215   -3.18103039724233    0.01127268680107
N          -0.97832448515095   -6.48676152587196    0.02559240451494
N          -2.02794253157849   -7.22693293675353    0.03720590870875
C          -1.82337601868377   -8.56140715354207    0.03222384847482
C          -2.88266093590860   -9.44612474961672    0.03842384772012
C          -0.60861072405180   -9.36105204586900    0.02313982627051
C           0.74699472636489   -9.05874062302831    0.01553418452443
C           1.64735194131705  -10.10780524375031    0.00973439229212
C           1.22270451587459  -11.43469877309777    0.01137973186006
C          -0.12210982415731  -11.75918849403399    0.01897807485633
C          -1.01822479619229  -10.70595019173398    0.02479985467767
N          -2.41551550100727  -10.73084251178259    0.03348620255084
C          -3.15288497908492  -11.82947457505347    0.03681822504803
N          -3.77400675821031  -12.79157308400103    0.03946298195211
H          -2.31953419070680   -0.25906559472184    0.01026394638026
H          -0.58914362393353    1.83448868095213    0.00968104326361
H           1.87843054389525    0.68101181747191    0.01744021167628
H          -3.93372352673457   -9.23101433043297    0.04491906582895
H           1.07318706424198   -8.03152747092266    0.01435106566479
H           2.70626723837285   -9.89804270307834    0.00385505572849
H           1.95612088069072  -12.22641932633997    0.00687678513285
H          -0.46137156118774  -12.78384921947826    0.02063271992715
