25
         -49.679299489110          0.000522875012
C          -1.04284085091996   -0.41920337590057    0.54676457174967
C          -0.38229021044722    0.79702312587188    0.31130281241931
C           0.73316688694601    0.65025166159886   -0.45574627462146
S           1.00449061705667   -0.98119751560155   -0.91035164906095
C          -0.41650094636187   -1.48716075951121   -0.05065382955725
C          -0.82929002031208   -2.84731971531669   -0.00356552028926
S           0.02990203009231   -4.15757648444745   -0.81745352342577
C          -1.26394656145511   -5.19621431849116   -0.18381444573530
N          -2.12753556263218   -4.53267588280419    0.54486510055622
N          -1.87717231678710   -3.25919724919597    0.64450839817817
N          -1.11081809872045   -6.50805914684803   -0.25903273959856
N          -2.05008359529981   -7.33123106846412   -0.44503527762668
C          -1.79345868900366   -8.64465603574754   -0.26330136412727
C          -2.73789683117197   -9.66643000516147   -0.53365762803779
C          -2.10320879580072  -10.83082412844421   -0.18857134573507
N          -0.65551564941995   -9.19091836288872    0.20936527525652
N          -0.86874747483761  -10.47569918837971    0.24472804746376
N           0.07723810818689  -11.33024223708310    0.76152833583412
H          -1.93979354299736   -0.53355290562220    1.12646373144114
H          -0.71785544818757    1.74348164201249    0.69535810596430
H           1.41701143471109    1.40716927266317   -0.78517160727785
H          -3.72562472629018   -9.53228529079431   -0.91951187458357
H          -2.41408783443461  -11.85456014695421   -0.21250892931768
H           0.87400503494506  -10.77743276755469    1.06597615111712
H           0.36462304314036  -12.03467911693420    0.08666547901486
