24
         -50.433288007372          0.000877401616
N           1.54923461465224    0.04769431409904    0.01132901860279
C           2.88939288169126    0.00269989289402   -0.01575035294073
S           3.88708194600052    1.44155333066490    0.00291216139953
C           5.26518248968476    0.28322949126661    0.01100865734166
N           4.86248295897008   -0.94506589290567   -0.00255638558648
N           3.56887076114599   -1.11372129971888   -0.01853501494134
N           6.48394147469835    0.82650665438730    0.02979948319666
N           7.50432439887498    0.04136818348621    0.03778824944098
C           8.69325517573518    0.67223969659896    0.05374142441541
N           9.82175077135188   -0.04178031193821    0.06524978858523
C           9.02274756139579    2.07507207761108    0.04414536006018
C           8.41903341773723    3.32919692266236    0.01132309191200
N           9.16455825520369    4.41706506702694   -0.01322948958879
C          10.48949055160931    4.29472117812269   -0.01309688880854
N          11.19666630380764    3.18323976731780    0.01688573527649
C          10.44068947697982    2.09048288823777    0.05634679073813
N          10.83855385512884    0.79251348977451    0.07319174305001
N          12.12914379186311    0.33889547088637    0.18697665514811
H           1.07123605007090    0.91779807060576   -0.13458049867553
H           1.05090932877598   -0.81699420625809   -0.10923841009911
H           7.34615236120139    3.46081505034551    0.00050081782542
H          11.05209636765634    5.21773196339216   -0.04502787311954
H          12.76780809135854    0.95289876186291   -0.30973019855003
H          12.18179711440641   -0.62775056042229   -0.11932386468240
