31
         -59.276722905053          0.000700138261
C          -5.13712020726009   -1.08427124218208    0.36767602964787
C          -6.08576490539066   -0.10944826230247    0.02028413504641
C          -7.03187406898677   -0.57866223425403   -0.83967616246654
S          -6.78615706010919   -2.22685855810835   -1.24646347991251
C          -5.37435432789381   -2.29520814109381   -0.23844146906546
C          -4.60025835877935   -3.48014588539743   -0.10074423285670
S          -4.95242717529112   -4.98026525288151   -0.96150929095241
C          -3.49583762418237   -5.60494225412312   -0.16040104754209
N          -2.94605755202422   -4.72259972361612    0.63774243198439
N          -3.55762440789776   -3.57432436305241    0.66960131222704
N          -3.24942673072609   -6.90261125754053   -0.23020059566010
N          -2.07882219494514   -7.39483360480500   -0.23775625060514
C          -1.94103733483175   -8.71925994975663   -0.06949898698515
N          -2.90544696956883   -9.60757032865745    0.22002148220392
C          -0.68052311788356   -9.40003612107202   -0.15446352001397
C           0.63542249474490   -9.03012266363523   -0.41952411116462
C           1.59244861783564  -10.01965831596632   -0.40317072757188
C           1.26943778370460  -11.35608790215173   -0.12867727450202
C          -0.02255552590950  -11.74895142158463    0.13710788245278
C          -0.99125196710810  -10.75020085582806    0.12049902162946
N          -2.34130808795584  -10.78374972833854    0.32978665288246
N          -3.07473886014121  -11.89000152617639    0.69772382886412
H          -4.30664606117088   -0.92993873360994    1.03102384965108
H          -6.06960195814086    0.89954294365364    0.39168828831401
H          -7.86444425995555   -0.05270036725610   -1.26281068084224
H           0.87883913580585   -8.00077933019464   -0.62598346824498
H           2.62293564759840   -9.76795197474934   -0.60356981397616
H           2.05856979404968  -12.09271960500588   -0.12426563072728
H          -0.27625697841720  -12.77333520919168    0.35889380730391
H          -3.09768193284434  -12.58813922162697   -0.04314651666447
H          -4.01822580632469  -11.58330890949350    0.91976453754691
