30
         -59.582467933407          0.000880502966
C          -0.91641204469771   -0.47183393439272   -0.63602373187873
C          -0.35582410903462    0.77340463474976   -0.31324486683295
C           0.57813004106757    0.68974438433969    0.67548787095703
S           0.79580285733199   -0.91549637251663    1.23699890691926
C          -0.39789780277584   -1.49826634448427    0.11899504761831
C          -0.76317690570338   -2.87007427221217    0.04481353569418
S          -0.08711897759165   -4.12181569742872    1.08656628319540
C          -1.20238238522779   -5.21506898479717    0.24231032025899
N          -1.89138644449148   -4.60499511201629   -0.69028320909686
N          -1.63981251737330   -3.33448612937323   -0.79722682806004
N          -1.07089343435716   -6.52021089410840    0.42982444582852
N          -2.04390324769149   -7.32788109022694    0.40266741244879
C          -1.77094992270818   -8.65180112580180    0.36317126598940
C          -2.77470729868310   -9.65388708268486    0.47828550149558
C          -2.10514552827826  -10.83615230944247    0.34832475183738
N          -0.57458581786002   -9.22249256670776    0.17037990000069
N          -0.79054385849694  -10.52458974464698    0.16222187137481
C           0.26250244906845  -11.39399603937453   -0.02322729990084
C           0.35674329862661  -12.76563875641471   -0.08728680257484
N           1.64913144348125  -13.11469718203885   -0.28269746220563
C           2.32920250382826  -12.00269876587901   -0.33755983246372
N           1.53422811284197  -10.91884744640489   -0.18468738543540
H           1.76829459627984   -9.93802106860561   -0.18329722782029
H          -1.66954144588364   -0.63642749906694   -1.38402619259359
H          -0.63161019454855    1.69567656510363   -0.79195133152704
H           1.15444950257628    1.48099026476577    1.11231518280486
H          -3.81865144477555   -9.48772933616570    0.63586026715310
H          -2.43958629170469  -11.85223370901225    0.36768073588545
H          -0.41146178521283  -13.50654575955457   -0.00696276797521
H           3.38817665199266  -11.94245862560133   -0.48444836109684
