36
         -70.004855532209          0.000895278409
C          -4.86620093711159   -0.96295214114356    0.05752327872209
C          -6.05157426404458   -0.20419944072767    0.06520615387220
C          -7.07708122865600   -1.10627297052432    0.06887388068978
O          -6.61223329772820   -2.35963025593256    0.06346849993197
C          -5.26307183573534   -2.28304489955188    0.05717408509991
C          -4.48294952609751   -3.47360795698631    0.05148618581315
S          -5.18557958819948   -5.07251840604301    0.04886551981789
C          -3.50003303603567   -5.64659768615556    0.04066674991754
N          -2.64514464425800   -4.66382680408644    0.04210982797244
N          -3.17525438300832   -3.47792485822015    0.04824742969417
N          -3.32016634389596   -6.97177051693497    0.04421584584925
N          -2.10823062890557   -7.40591526075371    0.02085836361255
C          -1.94530547099043   -8.73923159775145    0.02831943531708
N          -2.89993643088427   -9.67126142256871    0.03633292147200
C          -0.65557929741397   -9.37653579625207    0.02082934180337
C           0.65834417259529   -8.92187572149033    0.01280062950870
C           1.66023679434943   -9.86713847233976    0.00866447579457
C           1.37091926078226  -11.23627669942234    0.01278060462096
C           0.07579919658677  -11.70800567419072    0.02109870498002
C          -0.93999104811247  -10.75905771525158    0.02522663030098
N          -2.31382569575785  -10.86251881332599    0.03319985291314
C          -3.12270572893488  -11.97725023073349    0.03608392450070
C          -2.91377636916826  -13.33902836060742    0.03167305112757
N          -4.10783509610405  -13.97558803866171    0.03802079614879
C          -5.02391817956558  -13.04666876955054    0.04647148700623
N          -4.48096811254826  -11.80851358519727    0.04558329274433
H          -4.92402590618101  -10.90218328677414    0.05020022214626
H          -3.85495859285960   -0.61463341516428    0.05286284915931
H          -6.13497913602683    0.86297109186327    0.06763703936480
H          -8.14173549178930   -0.97840377672119    0.07469774839854
H           0.86353645513662   -7.86375959385329    0.00990041464377
H           2.69309552834055   -9.55363457795570    0.00215980571123
H           2.18707240555455  -11.94291037758136    0.00946705057946
H          -0.13238185023841  -12.76430451711273    0.02468221188497
H          -2.00172348297131  -13.89705046728253    0.02403840054387
H          -6.07883821012278  -13.23021898501455    0.05310328833639
