30
         -60.237960935127          0.000504519974
C          -1.21322093159460   -0.32472940725023    0.00784098213228
C          -0.39449039004616    0.76911051444765    0.00211938784887
C           0.91478979875460    0.24011890594367   -0.00217326743639
N           0.89642522518168   -1.06992487609283    0.00104027827399
N          -0.39549775957532   -1.41646737499885    0.00700026019729
C          -0.79141268380920   -2.72077406831304    0.01144620971302
S           0.34691618469365   -4.03732436530693    0.01089502309902
C          -1.10893859233367   -5.06830530884650    0.01848983630850
N          -2.20799184076261   -4.37992426163999    0.02017998257163
N          -2.04066735444387   -3.08330379347376    0.01629716020473
N          -0.91367694717939   -6.39815899241950    0.01964014314060
N          -1.96649441919104   -7.13727799293106    0.02891727410422
C          -1.76880154644498   -8.46784641969378    0.02854523791966
C          -2.83852979307217   -9.35880607643038    0.03732764113637
C          -0.56260987059399   -9.27237711687295    0.02058768990259
C           0.79641868189928   -8.97967343122859    0.01063416068073
C           1.69163212730589  -10.03154623968847    0.00554885897741
C           1.26275088132597  -11.35921046222234    0.01016119926242
C          -0.08050222644973  -11.68063352626043    0.02006342521351
C          -0.97631527780688  -10.62396656269427    0.02514359471755
N          -2.34505837815604  -10.60353698918002    0.03500106897563
F          -3.12570554927753  -11.72631297319318    0.04163947906834
H          -2.27655526371284   -0.44160746649259    0.01243661643250
H          -0.67796595589332    1.80092113038049    0.00098186589805
H           1.84711917353483    0.76817548189297   -0.00718206345830
H          -3.89033270798265   -9.15434495223377    0.04460889304641
H           1.12579266612305   -7.95350700934633    0.00710667506247
H           2.75124482055269   -9.82605892151987   -0.00218277903375
H           1.99531411860777  -12.15161557738683    0.00596231539660
H          -0.42163618965332  -12.70416186694810    0.02377285064405
