24
         -51.603185277005          0.000333020159
N           1.55331787909206    0.22653028306166    0.03933823979952
C           2.69663279346707    0.14854141273743    0.04243227534132
C           4.09685753674140    0.08918726021710    0.04605130675588
S           5.07392146234162    1.53957544308367    0.03612927957072
C           6.44927039876962    0.41840251069746    0.04811090070435
N           6.07626039602316   -0.82932284772886    0.05827544123749
N           4.79355850620791   -1.01155477066378    0.05703193537867
N           7.67469365017658    0.97231332851923    0.04890560513331
N           8.67694606892572    0.17185542520257    0.05194921199530
C           9.89020487357642    0.75875906565006    0.05514278033774
C          10.26788547747498    2.14234869576281    0.05137716284791
C          11.62764632815023    2.12656308890148    0.05580523985477
N          10.98278159643152   -0.01235461464521    0.06160780579720
N          12.00792316610949    0.80891138119040    0.06221325095081
C          13.29902504143748    0.32821442235247    0.06898231114894
C          13.76388262652568   -0.95943868064489    0.07638953205250
C          15.17277037751871   -0.84607458367734    0.08115900752024
C          15.45064427918426    0.48669754373651    0.07631274408223
O          14.31524454436531    1.21190267305308    0.06889742366184
H           9.60333536391862    2.98017406738487    0.04562604237301
H          12.35772359969162    2.91006375421642    0.05512837762370
H          13.16527262524513   -1.84516082420133    0.07809757631735
H          15.87939454891088   -1.64948506696576    0.08736529061162
H          16.37384685971453    1.03025103275993    0.07733125890359
