17
         -37.949271359065          0.000843721901
N           1.46541888135386    0.14864576894600   -0.23664462414470
C           2.59795718576867    0.09674428652906   -0.06375432924444
C           3.98291557060864    0.05732647164272    0.11829547962136
S           5.07456332298982    0.99436736554338   -0.91745927286199
C           6.36269719062593    0.23184115028047    0.03038016936256
N           5.89950811342495   -0.55496154191412    0.98084897824920
N           4.60750622294798   -0.63348207731131    1.01506697118429
N           7.59036690728661    0.69543664495538   -0.07004809043828
N           8.65513453997686    0.06443626268788   -0.23966216017934
C           9.83356863449323    0.71839914568470   -0.08651510944423
C          11.09536129816411    0.11832944928212   -0.34808971377022
C          12.00666928614248    1.09058252352555   -0.03854059926211
N          10.00227438772043    1.97361834024077    0.35367957363046
N          11.29601124399140    2.16951748619553    0.37348201081082
H          11.65861864433773    3.06019793705290    0.68308984142280
H          11.26444057897946   -0.87407886137522   -0.70641263191796
H          13.07659799118706    1.09794964803484   -0.07631649301835
