37
         -69.268453809170          0.000668374103
C          -1.21768532788768   -0.34353453278175   -0.50854645092119
C          -0.50403219940901    0.71730368919725   -1.09932600455543
C           0.38414894194474    0.14191555147594   -1.96061581541541
O           0.27122305243869   -1.19221557331351   -1.94398975205632
C          -0.70479877650496   -1.49642675835247   -1.06017615041961
C          -1.06248147377852   -2.85532117050203   -0.82835077595751
S          -0.30676247997184   -4.19903791284879   -1.68127278467435
C          -1.43226127473858   -5.21440116086738   -0.75439086590974
N          -2.18106853215177   -4.51873190486191    0.06170126789650
N          -1.96960955271273   -3.23273748472754    0.01972775574567
N          -1.26766712392414   -6.53171718564341   -0.77279102276363
N          -2.23967210379751   -7.34452064606400   -0.66509304304938
C          -1.95089050681008   -8.64082603346056   -0.44158022358280
C          -2.94202731731815   -9.60677123152647   -0.37295380108850
C          -0.70008927300897   -9.32700449872935   -0.19328325138378
C           0.62159423707783   -8.90657485039964   -0.11788762018373
C           1.58947151864223   -9.84645046094928    0.17645990604796
C           1.25465972491112  -11.17841547708866    0.41079570088736
C          -0.05387774845603  -11.61801083326164    0.33680029927301
C          -1.02516387431538  -10.68371408139307    0.01354827287394
N          -2.40389900089917  -10.82242872199630   -0.11762884604498
C          -3.13137244938849  -11.99202233860501    0.00773621621512
C          -2.78886779271286  -13.25505973813208   -0.38090926343359
C          -3.79652725737452  -14.19897885948123   -0.08933262696262
C          -4.88312663175540  -13.64697668297902    0.50593766910847
S          -4.71118042727703  -11.95379513846604    0.74036277593419
H          -1.99976625944820   -0.29327461213775    0.21923436428262
H          -0.63183031718813    1.76354199835826   -0.91208044254797
H           1.12130897638230    0.56229117700912   -2.61595930554744
H          -3.99956360977424   -9.47769104649778   -0.50044317273597
H           0.87092813439004   -7.87062872097123   -0.28173590385729
H           2.62436173429132   -9.54585972337441    0.23913036896309
H           2.03339897844063  -11.88335479650212    0.66018904905341
H          -0.30319909334766  -12.64648109534088    0.54422980308459
H          -1.87328761841491  -13.49641651733068   -0.88784610871572
H          -3.71353629263711  -15.24429808032738   -0.32422448423322
H          -5.78670098351764  -14.12810454713401    0.82225426667456
