20
         -47.796055057121          0.000745074905
F           1.52413054932871    0.24368269636345   -0.03465731710368
C           2.83107685183968    0.19294721634771   -0.03632193814403
S           3.79498327885327    1.64373082984374   -0.04166345763714
C           5.16403137116367    0.50682328321803   -0.04023508785421
N           4.78594655305032   -0.73455923498525   -0.03652052995022
N           3.49175547980933   -0.91359096134163   -0.03440139083714
N           6.39671384201677    1.04500561956374   -0.04451331561960
N           7.38390937996688    0.23428814139710   -0.04128776819238
C           8.62435637594986    0.76659918825720   -0.04593309393597
N           8.96223760010724    2.05649006952608   -0.04948523008538
C           9.81440869225731   -0.03893711824867   -0.04639202301317
C          10.20906708844956   -1.37486505470087   -0.04421196267772
N          11.49214369023654   -1.67422006957379   -0.04600452401876
C          12.38783124543526   -0.69113382072940   -0.04998531316599
N          12.15913156542088    0.60767337983140   -0.05248802298778
C          10.86779999286998    0.90940911806103   -0.05062766081439
N          10.28111372869504    2.13525016835893   -0.05208788642671
H          10.73676645985885    3.03656819191975   -0.05449783062767
H           9.50446115804231   -2.19448334387573   -0.04100624945342
H          13.42605509664854   -0.99306829923281   -0.05135939745464
