29
         -64.489486386804          0.000578358492
C          -0.84771201780166   -0.31488948781384    0.63060980156873
C          -0.10023171815254    0.74285675934854    0.19597997760131
C           0.81625049926998    0.18543917896909   -0.72331349374798
N           0.64248935099821   -1.10751185266701   -0.83936278377870
N          -0.36858680516887   -1.41543407508033   -0.01866399693701
C          -0.81618321704853   -2.69507862186056    0.10465834863660
S          -0.12816631931174   -3.99946122923417   -0.83161540493200
C          -1.34149615648395   -5.00419448179580    0.00103387863433
N          -2.06474536168895   -4.32304671212692    0.85151864205141
N          -1.76533660340534   -3.05508423385776    0.91584514759735
N          -1.24750717002304   -6.32229122410919   -0.11303359185339
N          -2.24452022297496   -7.09526405136542   -0.04163896035410
C          -2.03319074293685   -8.41539020698191    0.11665561264322
N          -0.92659801143483   -8.98665980996679    0.60037695630779
C          -3.03280772283781   -9.41931201725206   -0.10412686093548
C          -4.34484185333874   -9.55164433103853   -0.56447206393287
N          -4.91472414546795  -10.72912783499368   -0.60766803664900
C          -4.22022328022168  -11.81709411594736   -0.20857814256893
N          -4.85949200419985  -12.99055891010055   -0.28642703572571
H          -4.38866414588139  -13.82516717810009    0.01181115263922
H          -5.80847861538071  -13.01116433157523   -0.61115480129725
N          -2.96487022193858  -11.83231535818850    0.24914176344803
C          -2.41316106595096  -10.63468585329067    0.28674271816205
N          -1.17400499708066  -10.26830280382002    0.68487866412581
F          -0.23491476397805  -11.08379155497924    1.23747090248421
H          -1.65786804945329   -0.40074607114169    1.32397211222329
H          -0.18484405003750    1.76949510171326    0.48559493016558
H           1.57994487874760    0.68197251419563   -1.28723982257853
H          -4.93339546681895   -8.70646720693941   -0.89231561299759
