28
         -49.360016773542          0.000351829761
C           1.59566554454031   -0.02907767004645   -1.28782545041045
C           3.02579936441065   -0.00507436438601   -0.91309232217193
S           4.22968759494464    0.86205338749787   -1.87123823460299
C           5.39963343696282    0.23484397886640   -0.68555150709891
N           4.83284711498929   -0.47278576807943    0.24751306839965
N           3.52760199235966   -0.59101600045572    0.11061383548145
N           6.63454863900816    0.72494340518034   -0.70611571857338
N           7.67143982583110    0.02304112921648   -0.48419685164751
C           8.83814909615620    0.66879226173205   -0.31539553339180
C          10.04346213440613   -0.01795277281961   -0.17057835899295
C           9.16449222831831    2.07301397541492   -0.22198777587540
C           8.42121656284040    3.24599647351460   -0.28992605185107
C           9.08521941827934    4.44805776935228   -0.15156127613623
C          10.46435187310410    4.50061107931251    0.05541054302647
C          11.22470680904265    3.35053399683852    0.12792955927168
C          10.55928923033991    2.14151616921000   -0.01397643563437
N          11.04957099428628    0.85209898253367   -0.00163925109168
N          12.37860231418625    0.53668440148300    0.24901129134520
H           1.20901594088175    0.98473590434187   -1.37702733420298
H           1.03787230630450   -0.56688846225738   -0.52626521728142
H           1.46720452063690   -0.52621389973068   -2.24860530759998
H          10.20085903493474   -1.07950236612311   -0.17925685876125
H           7.35552760531603    3.20429972559313   -0.44723534383541
H           8.52918844762182    5.37212640857867   -0.20100592772520
H          10.94540118609127    5.46092496185341    0.16392599555975
H          12.28901297805321    3.39078144813493    0.30235856355070
H          12.99359917255308    1.05857269574648   -0.37132013933329
H          12.52737463360030   -0.46075685050355    0.13130803958516
