26
         -50.115433026472          0.000268406012
C           1.27173677064465    0.05015796883957    0.06517251555494
C           2.75090380604909    0.02775502055346    0.06346238737563
S           3.72081116973120    1.48402033423592    0.06786871930203
C           5.11358286120507    0.38165201364444    0.06301250918833
N           4.75427806447755   -0.86366530295439    0.05866956283471
N           3.45808891318561   -1.05292921218744    0.05887110529923
N           6.33477879935100    0.94621756895955    0.06182233116445
N           7.34283499008543    0.14927804554981    0.06123908601162
C           8.56114192002604    0.72321030146798    0.05754288709081
C           9.72356802823989   -0.04111378371630    0.05502764825564
C           8.97993747142176    2.11094026947983    0.05492044963329
C           8.30431594506347    3.32615416121540    0.05599254318968
C           9.04950136395873    4.48883637864766    0.05279779104802
C          10.44461127980127    4.46493015876402    0.04854337445168
C          11.14318274239061    3.27360274540854    0.04747919042413
C          10.39345788474401    2.10850601997625    0.05079112292020
N          10.77176145882890    0.79338571399002    0.05102304886885
F          12.07339784547330    0.37226127173915    0.04730983045249
H           0.90415317366758    1.07199043514304    0.05721784362360
H           0.89789934507751   -0.46362820037555    0.94974450653223
H           0.89581760884602   -0.47889148773400   -0.80934831328259
H           9.83386819626473   -1.10685506785295    0.05562992270363
H           7.22670399294063    3.34256502926648    0.05924614067707
H           8.54437637622779    5.44280321494911    0.05356172871016
H          10.98926342810326    5.39663034693888    0.04605131126853
H          12.22171656419491    3.24547605605153    0.04428075670166
