32
         -59.534628743468          0.000558011948
N           1.48718275186692   -0.06853399038560   -0.86605234354063
C           2.83350881431783   -0.12449040156880   -0.78213905032043
S           3.86475763171881    1.13632694853751   -1.45408333350730
C           5.20960529239186    0.16256228208764   -0.77282424566061
N           4.78784908204490   -0.89470220799585   -0.15667536485738
N           3.48183288060952   -1.05294719486443   -0.15201425528176
N           6.42407306460035    0.70816749895529   -0.78736836718048
N           7.46708839244305   -0.02872155316318   -0.72317891274699
C           8.64406579633114    0.60267806824649   -0.53247949163373
C           9.84461167507515   -0.08703336926042   -0.50045259229403
C           8.96959804161660    1.99135151559069   -0.28565077564244
C           8.20917825501052    3.15026283243917   -0.18609267071205
C           8.86089042348445    4.33561590566897    0.08882445682111
C          10.24175693758218    4.37650528683508    0.27667036789317
C          11.01720638374313    3.23702956246895    0.17957946425177
C          10.36841598590497    2.04869925091092   -0.11753734878938
N          10.87473123201995    0.76319054382255   -0.26039854186619
C          12.20422353178685    0.39351982791758   -0.16142760699238
C          13.37171641426303    1.01643003302428   -0.53038657600123
N          14.42897125146961    0.22641973746271   -0.22131724939572
C          13.93803331366932   -0.85009243874181    0.31848763970933
N          12.58305782207218   -0.80970116739352    0.38172664868447
H          11.96515194976293   -1.50585281532817    0.76594878539310
H           1.07745744299495    0.53157429272945   -1.56025580764852
H           0.99348925752371   -0.91273292250171   -0.62757163793101
H           9.99800583908271   -1.13631352481908   -0.66439650544324
H           7.14034093379325    3.10897070540493   -0.31999211313578
H           8.29307448659224    5.25036587739046    0.16916945004387
H          10.71600622600413    5.31882610106593    0.50616013068766
H          12.08265883279772    3.27112966572428    0.34190298949306
H          13.51040024888543    1.96076437671838   -1.01413570990640
H          14.51668980854241   -1.67896872697408    0.67155056750674
