26
         -58.436593293408          0.000863388162
C           1.54888473179015   -0.65935553607123   -0.06166754702921
O           2.77919201024771   -0.08730165296070    0.36429925483711
C           3.24748237150461   -0.53312361414262    1.51010258657067
S           4.78457710891455    0.06151273661640    2.10630179295469
C           4.49545302514566   -1.06426991594741    3.46442243749410
N           3.36397117477976   -1.69587059678109    3.35898003862709
N           2.66914225665491   -1.39387846184310    2.28774136864748
N           5.30597115502103   -0.99108254940531    4.51695252088055
N           5.51301282836693   -1.98791905280271    5.26782198857255
C           6.11590313280723   -1.80170872641725    6.45585057718270
N           6.13442870410768   -0.67012723023509    7.16508663656983
C           6.72411690325247   -2.85420493097040    7.21723932793931
C           7.03897040520175   -4.21065015048506    7.11903452778676
N           7.63325502603406   -4.82525327956442    8.11084722669116
C           7.94590357253865   -4.13194187212442    9.22719274912971
N           8.55537274275799   -4.82162244078082   10.20004391702435
H           8.79712661086845   -4.35567180144420   11.05523627674685
H           8.73045482579161   -5.80049403729047   10.06783609602019
N           7.71051257565113   -2.83559968955118    9.44842381615473
C           7.10721163030212   -2.23935483179879    8.43749656153066
N           6.71752819322856   -0.95222823148173    8.30368810148343
F           6.77076401059293    0.00611039831024    9.26991659956376
H           1.29689210746611   -0.15733902124860   -0.99287678788083
H           0.77283015653310   -0.49554576972568    0.68857696775664
H           1.66389990923196   -1.73345052584212   -0.22289140098560
H           6.80575283120818   -4.79987921601150    6.24347436572988
