34
         -69.241387295918          0.000345073220
C          -4.93752421653365   -0.97326708473508   -0.12291873353258
C          -5.95896524147718   -0.01728156002695   -0.02182592654451
C          -7.17698909204019   -0.57403625857411    0.23244138084864
S          -7.10540019722652   -2.28126060065460    0.35535593562913
C          -5.39473946110343   -2.25865096202947    0.05904696256883
C          -4.61495073803410   -3.44619061871644    0.02251701925096
S          -5.25111679906401   -5.04863488639268    0.36196368824358
C          -3.58423960967847   -5.60103012400408    0.11219030254117
N          -2.77776154957738   -4.62302629245377   -0.21313897083175
N          -3.34265183581239   -3.45666465713451   -0.26863978486490
N          -3.36326845542979   -6.91050481597075    0.06507936388875
N          -2.20893564700839   -7.38824270371661    0.30180729185061
C          -2.02588145745474   -8.71306386518224    0.14346803236236
N          -2.96371551718979   -9.65407366131138    0.07515567413610
C          -0.72919905131124   -9.33016148264204    0.12961969250688
C           0.61829803041927   -8.98571073521193    0.15786951567576
N           1.53675774017910   -9.93068797612994    0.10957348005744
C           1.14981087922981  -11.19919717996151    0.02548581721406
N          -0.08297980274745  -11.66602634018829   -0.01555435613403
C          -1.00738890086112  -10.71570094234722    0.03724879361353
N          -2.36953987687118  -10.84242933827916    0.02586616287844
C          -3.10444326447541  -12.00552485102696    0.00797837904651
C          -2.63743385022064  -13.29039440445192   -0.03568491528430
C          -3.69168918882834  -14.22358535017815   -0.03926345138634
C          -4.91824947266681  -13.63698857211412    0.00174328168633
S          -4.83320650517925  -11.92057951542584    0.04439622551260
H          -3.90414164604014   -0.75602833320802   -0.31853541139943
H          -5.80149980821964    1.04044281965711   -0.13219622846049
H          -8.11941538280907   -0.07785256811346    0.35512297382466
H           0.95911112601853   -7.96201104720337    0.22290531684748
H           1.93953825901239  -11.93680383952336   -0.01473029434103
H          -1.59182576648911  -13.53344514544123   -0.06374428451980
H          -3.54128185022162  -15.28723911432633   -0.07049848907362
H          -5.87813185028809  -14.11333799298152    0.01004555618868
