23
         -51.168630194856          0.000422502410
F           1.53687959994720    0.10738035871777   -0.98167610218612
C           2.81762938903467    0.09042903113532   -0.69614535503571
S           3.96666113721800    1.00579955572941   -1.66155276336259
C           5.16680234277502    0.29862070666997   -0.54860897661853
N           4.62939906388649   -0.45750399285978    0.36513609185281
N           3.32090274361859   -0.56474158119504    0.27875706760961
N           6.40449265170465    0.77932750284231   -0.57459339428238
N           7.44474102186589    0.07232339497884   -0.42496185229718
C           8.61758595185014    0.71204102189836   -0.25331816003807
C           9.81781488309379    0.01529769219448   -0.13966941895564
C           8.94142515005103    2.11836611329783   -0.12741441398996
C           8.19461778393138    3.29070781485357   -0.15706138284684
C           8.85864288025923    4.49198708414688   -0.00357886730400
C          10.24093464847599    4.54749134851286    0.17800755908393
C          11.00864747908401    3.39987605446897    0.21186041046689
C          10.34031906777230    2.19621012382776    0.05699695285341
N          10.79911188735979    0.90572958834689    0.03999488533042
F          12.11132190955110    0.56146483428151    0.19224135820026
H           9.99542714541372   -1.04102860145192   -0.17479918436188
H           7.12664485718658    3.25035916891939   -0.29701586080526
H           8.29771989637616    5.41374621316431   -0.02360629234385
H          10.72011948985475    5.50719622633183    0.29420988491288
H          12.07775901969016    3.43305034118881    0.35150781411849
