23
         -46.752263840715          0.000948612424
H           1.18741548995858   -0.46346061904940    1.17128974174257
C           2.20309351581237   -0.22272949466281    0.93264547542051
S           3.06650930076399    1.03965898529521    1.76031633275330
C           4.43504993213716    0.55352729776683    0.73697528295809
N           4.12116302445812   -0.40358440868005   -0.09205992457208
N           2.88510271207602   -0.81936876415965    0.02405087855253
N           5.51465833199822    1.33159783402558    0.71836335305187
N           6.69106682032330    0.88476632077842    0.58476602775294
C           7.65618987350789    1.81073115828575    0.37854294729376
N           8.92341067980168    1.42108725279760    0.28750617696375
C           7.58101004482840    3.23952247792421    0.20541231076690
C           6.65987127336692    4.28324479417979    0.18306868925344
N           7.07658318184182    5.51894028630682   -0.01042456888608
C           8.37544481631689    5.74461953821737   -0.18316745412407
N           9.35316701234754    4.86050246009505   -0.18805181239902
C           8.93335368042620    3.61621394864900    0.00863718683497
N           9.67775253346352    2.48088824588813    0.06817035817875
C          11.09925434346844    2.38115762350819   -0.08523915439173
H           5.59775082801327    4.13408270148234    0.32032701637410
H           8.66265116231746    6.77596620783297   -0.33642101516881
H          11.49394988115572    3.38874844423524   -0.19801444311943
H          11.33851414505909    1.78376731768820   -0.96607175851386
H          11.53297741655810    1.89907039159575    0.79103835327798
