36
         -69.988047001123          0.000465085002
C          -4.82022154116633   -0.98476967405763    0.57352330288647
C          -5.83763677885729   -0.13099162567826    0.24882730726205
C          -6.74462927098187   -0.91644885425469   -0.49411527351235
N          -6.31515291681995   -2.14917484102990   -0.61445088186552
N          -5.14612998477881   -2.19301236647351    0.03314558926706
C          -4.41306176700046   -3.34075090214767    0.10961961920298
S          -4.89692936343083   -4.79851493948728   -0.72672428539867
C          -3.39734710039186   -5.47981149978276   -0.04195404196732
N          -2.75284094696033   -4.62717835300448    0.70839430345543
N          -3.31942457607456   -3.45151343699469    0.79718131603198
N          -3.20043962531646   -6.78734113519829   -0.15009443158711
N          -2.03785899617016   -7.29898901766221   -0.18782854493533
C          -1.93483938072271   -8.63956862793768   -0.10659998586668
N          -2.92724256474367   -9.52306133174016   -0.00003085651030
C          -0.67232762304977   -9.32863057031989   -0.13273526537750
C           0.65989293299189   -8.93835235382101   -0.21468093904785
C           1.61635108331696   -9.92976091816007   -0.20089094734375
C           1.26701300041569  -11.28160217444148   -0.10695388717389
C          -0.04668230153989  -11.69110496869019   -0.02198075221418
C          -1.01419487924009  -10.69333981508638   -0.03466687226051
N          -2.39252524471638  -10.73452842540850    0.03595500214641
C          -3.21798716667106  -11.83244151136445    0.11665580287968
C          -4.58584823443887  -11.88739828581959    0.17358577654132
C          -4.90209145584393  -13.26326810925975    0.24024043129082
C          -3.71699063199671  -13.93105851742761    0.21907623691520
O          -2.68288164407505  -13.06719034987724    0.14363920190924
H          -3.91090070427242   -0.86067871995580    1.12348967281720
H          -5.93037247435511    0.90489115396111    0.50118901258877
H          -7.67744204137586   -0.62367703259878   -0.93282816925725
H           0.91555063709864   -7.89370018022063   -0.28405182462142
H           2.66125585404250   -9.66567115493706   -0.26263782342973
H           2.05058775899569  -12.02421414177789   -0.09925830489835
H          -0.31026391975492  -12.73293944300991    0.05285708191742
H          -5.25045263866229  -11.05027613065810    0.16675599964932
H          -5.88044946106752  -13.69302295283830    0.29583623183557
H          -3.47525603238307  -14.97415879284208    0.25037119866908
