23
         -51.538964952189          0.000592682525
N           1.56970963341500    0.07709666024450   -0.04480127738500
C           2.90347870811576    0.03310792622351   -0.06321873835653
S           3.91237486744132    1.46001651266093   -0.06523449441963
C           5.28028722647897    0.29196880642016   -0.07082739840860
N           4.86513600790208   -0.93615598309139   -0.07172425539712
N           3.57951572678430   -1.09409748137198   -0.06838737859948
N           6.50681433506125    0.81333071619543   -0.07802772789893
N           7.51186650645879    0.01641292734529   -0.07530083969714
C           8.71479928793808    0.64187918002568   -0.08392230975950
N           9.81756898416713   -0.07651985162796   -0.08860623970943
C           9.04246282923754    2.05469488723951   -0.08669625976209
C           8.42659335456565    3.30201766672885   -0.08451341416775
N           9.16369474689712    4.39697199289489   -0.08927650898980
C          10.48548770415318    4.28381623601095   -0.09563138323056
N          11.19660486712736    3.17048873525245   -0.09788374848659
C          10.45439984241186    2.07800062254838   -0.09348520155053
N          10.86887336444779    0.76308480837517   -0.09452861357358
C          12.12838795861559    0.33386985070027   -0.10074089164313
N          13.21649279849794   -0.01584140611081   -0.10660768693917
H           1.07842902973854    0.95089036588734   -0.08794848174858
H           1.06223941920052   -0.79021322847904   -0.07766134666079
H           7.35254052009815    3.42400099918097   -0.07929262994221
H          11.04771228124606    5.20710905674697   -0.09893317367381
