25
         -49.710474195514          0.000801289794
N           1.49973190518586    0.01104350469518   -0.00052517492847
C           2.84062231066375   -0.02505301037985   -0.05479464627362
S           3.82738385174842    1.42179315783948   -0.05287803190350
C           5.21439168745185    0.27410497648771   -0.06736821185369
N           4.82128732153075   -0.95571801179108   -0.07527556912298
N           3.52773229075689   -1.13539572722573   -0.07050566458754
N           6.43225136386926    0.82753281675168   -0.07288311275822
N           7.45300472590750    0.05130676955484   -0.06734400551408
C           8.64944628535966    0.68759280396708   -0.07299316583354
C           8.96505746496361    2.08416142902280   -0.08069587276965
C          10.32513713895636    2.12775764942478   -0.07832156014139
N           9.77012546820053   -0.03439117889547   -0.06703427901369
N          10.76570420977867    0.83297987573581   -0.07020303303164
C          12.07316751134244    0.39916212812316   -0.06368117506197
C          12.50309940072923   -0.89754993223674   -0.05497145582804
C          13.90952982550081   -0.98869450840891   -0.04893015447231
C          14.52086406423682    0.22351820053710   -0.05304322533091
S          13.39468884737126    1.52404565967969   -0.06457992565194
H           1.01551613164761    0.87660545994855   -0.15402241293235
H           1.00713816432841   -0.85657040645437   -0.12495259570336
H           8.26454056533964    2.89205967011517   -0.08615032667933
H          11.01593834257124    2.94728193945527   -0.08143092577290
H          11.82476202574490   -1.72946831657381   -0.05301510331792
H          14.44408941170919   -1.92103757062837   -0.04175875976221
H          15.56912968510536    0.44508262125602   -0.05004161175476
