24
         -51.263873711971          0.000508552544
C           1.35986709615408    0.14843016848598    0.05760830814723
C           2.83568586128100    0.11074497155796    0.05096125244036
S           3.82837545640296    1.54166984801695    0.04909837426748
C           5.20228290814836    0.41376332374895    0.03977074067477
N           4.81576679226025   -0.82706487093023    0.03969922349830
N           3.52670700302864   -0.98948708849865    0.04592043594729
N           6.43172207675076    0.95210912708117    0.03603515446077
N           7.43292046524632    0.15669734237670    0.02407557978066
C           8.64012883713998    0.77450256728922    0.01969922805388
N           9.73749612804799    0.04654975843761    0.01264255884809
C           8.97947599234277    2.18353667757901    0.01842466285981
C           8.37445695182440    3.43709923814816    0.02263052210261
N           9.12214428637892    4.52398604026356    0.01865419078916
C          10.44299871843465    4.39968698181672    0.01031082623317
N          11.14365720663502    3.27952677702394    0.00540013399198
C          10.39107148668339    2.19468305165736    0.00974490728580
N          10.79338418310816    0.87458671352110    0.00683664199680
C          12.05022451272056    0.43452871060905   -0.00075167187145
N          13.13579706199071    0.07830680677565   -0.00811125881405
H           0.99760430249552    1.17207096612960    0.06155361036055
H           0.98534213719925   -0.37521081485392    0.93634733200616
H           0.97755731282008   -0.37117074588767   -0.82018771807683
H           7.30175762095457    3.56987795363470    0.02927087862251
H          11.01349560195169    5.31780649601707    0.00702608639494
