28
         -53.381279822241          0.000958116795
C           1.41538920668548    0.15144411055242    0.15500327931935
C           2.88167487558302    0.12014267778187   -0.02410647027573
S           3.99043432304237    0.77614330929827    1.17805082023546
C           5.27083737488139    0.21768591692396    0.08244374281936
N           4.79528454698492   -0.32449460415998   -1.00560190519610
N           3.48525532644932   -0.36351033459071   -1.05103499521972
N           6.51663629553987    0.61106724086911    0.31971822973682
N           7.52754557593041   -0.10997204989182    0.08430594372911
C           8.74975461985644    0.45896205039122    0.10690785052315
N           9.02700291742165    1.76088415768193    0.01331017389381
C           9.97128594267023   -0.29053781983919    0.12930152690918
C          10.43242693928438   -1.60346045941140    0.20354916086925
N          11.71991736576029   -1.85144174315253    0.19144226789842
C          12.58774753557118   -0.82059677575422    0.11145380635983
N          13.89008951640804   -1.15161565308081    0.12341998661452
H          14.58270282407641   -0.43573887621403    0.00718320939494
H          14.13990496674468   -2.12297550683729    0.11939260340006
N          12.28285174236722    0.47564338079023    0.03558138643405
C          10.97636157651186    0.70325470981166    0.04821262130927
N          10.34417140235722    1.90154529143717   -0.02784916938835
C          10.96098646332051    3.18749602641276   -0.16623264224050
H           1.05093796321199    1.17675426255951    0.09667164507588
H           1.14499025896488   -0.24803968839839    1.13076221501580
H           0.94731606628509   -0.43899520013547   -0.62789910755862
H           9.76888579244861   -2.45460349441310    0.26636580921084
H          12.03590730034069    3.03319487127919   -0.23134415439054
H          10.72257332567986    3.81183017153028    0.69620366620791
H          10.59327795562180    3.68082402855968   -1.06675150068649
