26
         -49.441993447378          0.000958535597
C          -1.01341063746364   -0.42191199712370   -0.56363575290990
C          -0.38191855387439    0.80664981858997   -0.31321917896009
C           0.71815097242186    0.68099194846132    0.48053110375067
S           1.01052638801342   -0.94521241478353    0.94086600180960
C          -0.38089508496254   -1.47792437280861    0.04913507623190
C          -0.77333320804169   -2.84410895979302    0.00269922072155
S           0.06452645296406   -4.13203019910321    0.87064254957631
C          -1.20023452613873   -5.19074628763767    0.21288141884649
N          -2.03937940903346   -4.54837451643305   -0.56126724216096
N          -1.79371007910526   -3.27553298349560   -0.67699377062568
N          -1.04908894718031   -6.50110953145114    0.32701818525424
N          -1.99542551432424   -7.31455741922909    0.50687984316828
C          -1.73555571645858   -8.63725673422159    0.37410019957829
C          -2.69004497004049   -9.64850782468787    0.66192749914876
C          -2.04429873549964  -10.81864175317077    0.36861930338984
N          -0.59740881798056   -9.19643229222055   -0.06585499004140
N          -0.80071280909168  -10.48902665381824   -0.06229973268564
C           0.22999622837926  -11.39082189089482   -0.48700358370841
H          -1.89476100962798   -0.55291118062549   -1.16318201016346
H          -0.72767842175909    1.74665660904302   -0.70423801015227
H           1.37939434581270    1.45078848843585    0.82626475670072
H          -3.68432710621063   -9.50103273419016    1.02573732314444
H          -2.36369596767733  -11.83944912586250    0.42835684915339
H           1.08758066506738  -10.79487545856042   -0.79174465912321
H          -0.11394011591266  -11.99443170750152   -1.32847716519855
H           0.51893457772559  -12.05329082691785    0.33085676525538
