24
         -50.783693201351          0.000372134481
C          -1.15017245719160   -0.37100172364176   -0.22477019643934
C          -0.42596192428665    0.82673779183339   -0.13867547518276
C           0.88873760671642    0.62624256347412    0.16237133125095
S           1.27449596752345   -1.03200323214318    0.34697119672250
C          -0.36999035735200   -1.47979981393807    0.01444079778178
C          -0.79791789973168   -2.83432864603815    0.00575457958269
S           0.25462666457484   -4.19395701476563    0.37685481931453
C          -1.19736671658873   -5.18673832210644    0.15334516536236
N          -2.24264837167590   -4.47515193466797   -0.19115132314533
N          -2.01643318100036   -3.20194640726003   -0.28139954042515
N          -1.04965718659245   -6.50346777783845    0.10559181779895
N          -1.96134281722342   -7.31257979846426    0.43450565494241
C          -1.72965275053674   -8.63594264366372    0.21511551123524
C          -2.75245310205087   -9.62993606242119    0.31257889896634
C          -2.11508324725316  -10.81025253435518    0.09253432974384
N          -0.55487094370311   -9.19763336064890   -0.03830103317540
N          -0.78724154755988  -10.50816486633761   -0.10320892065500
C           0.18141885686366  -11.39543073865348   -0.31397845204101
N           0.99308890276523  -12.18035131851895   -0.49536213818013
H          -2.19735868000186   -0.44607105062432   -0.45096737816668
H          -0.85695858835384    1.79938578996650   -0.29276583005272
H           1.65881145404607    1.36156910094657    0.28739159998947
H          -3.78963037080071   -9.45159916801309    0.50016807892043
H          -2.46132931058558  -11.82367883211855    0.06400650585248
