30
         -59.581985478780          0.000581911532
C           1.39996452911695    0.10237430751943    0.09463391273758
C           2.87766694933985    0.07004319463672    0.09015149645426
S           3.85930481271669    1.51299654808511    0.08723370275966
C           5.24357437178391    0.39596406951992    0.08290513946312
N           4.86874941110579   -0.84670718298809    0.08398361782374
N           3.57604289186744   -1.02105179532404    0.08789455043078
N           6.46306549579916    0.95428461358555    0.07893774185079
N           7.48210883248090    0.17243082503549    0.07632384202782
C           8.67203141567017    0.80573725945650    0.07179221189307
N           9.79636362530673    0.10160527496312    0.07020776494258
C           8.99118871599426    2.21507718219632    0.06762958445290
C           8.36404157620652    3.45686219957440    0.06673891496796
N           9.09073455711378    4.55824277253227    0.06214400569983
C          10.41437227291329    4.45377486381021    0.05839419279943
N          11.13685345457289    3.34920223747405    0.05874055864295
C          10.40506828406680    2.24344297406996    0.06349254635483
N          10.82520186357417    0.93784371708282    0.06538908653860
C          12.12072335803340    0.47413961397028    0.06356311448827
C          13.27402886516153    1.21038746583221    0.05961929187441
C          14.41390121406261    0.38461466244297    0.05932698545975
C          14.10675430315534   -0.94091480913278    0.06299061302355
S          12.41307971060751   -1.23211837959589    0.06694771634152
H           1.03762353392268    1.12606715194495    0.09633140911782
H           1.02483173745599   -0.41854494678227    0.97451477269933
H           1.01954303807054   -0.41745385025982   -0.78362466497011
H           7.28894795321562    3.56884587004761    0.06987016059112
H          10.96680953208925    5.38347159472675    0.05433373586792
H          13.28420014080990    2.28424429921427    0.05711821886573
H          15.41978285092138    0.76289736698603    0.05655812589579
H          14.78092070286490   -1.77398910062404    0.06364765090498
