28
         -49.396849209019          0.000881238512
N           1.46501514005445   -0.08952496956766   -0.94158962644914
C           2.80742246826820   -0.13846234487604   -0.78436686541024
S           3.87307398833671    1.07020404418934   -1.50101202850050
C           5.18065410693588    0.15550741253529   -0.68054726999882
N           4.72851772950118   -0.84921079338645   -0.00370713153211
N           3.42143172223147   -1.01065368208817   -0.05237123019980
N           6.39853795917930    0.69716980218503   -0.68535934672023
N           7.43470024409261   -0.03985875302313   -0.55680529255783
C           8.61522099435815    0.58731615881825   -0.38364213908126
C           9.80807784164319   -0.11511658273801   -0.27476245581690
C           8.96355333005382    1.98420208636482   -0.25343689521075
C           8.22805218618648    3.16312644787232   -0.27839038810885
C           8.90262837748116    4.35707169095419   -0.12324628860336
C          10.28499524485144    4.38900704527538    0.05514471882565
C          11.03535659542057    3.22992364551252    0.08311835304786
C          10.36438388609861    2.02521923877685   -0.07323254522264
N          10.84128970143169    0.72981359418676   -0.09163925436047
C          12.20784403564444    0.31718398643234    0.06704646345545
H           1.10127466709009    0.43707272126295   -1.71674392108721
H           0.96348966518176   -0.91999600614922   -0.67246577721198
H           9.94936693901852   -1.17788242792844   -0.31688249776613
H           7.15957833195771    3.13069335544461   -0.41764591137501
H           8.35447119269798    5.28714261284368   -0.13929580815494
H          10.78045976961508    5.34111410142505    0.17393736995692
H          12.10524358586333    3.27462657138611    0.22267457752925
H          12.84564552476077    1.19231768989041    0.16148925272262
H          12.53267996210453   -0.26410542686182   -0.79857108919110
H          12.31979480994064   -0.29892121873559    0.96217302702005
