25
         -46.203300252720          0.000425917024
C           1.34946680652599    0.00234614588347    0.03789793872393
C           2.82846024704082   -0.02475802564046    0.03335034100008
S           3.80472158435927    1.42363936800737    0.03390184944030
C           5.19205683947942    0.31527010421513    0.02711736232689
N           4.82469634609241   -0.92973882448747    0.02530061465628
N           3.52981328713937   -1.11236870607806    0.02872014259086
N           6.41344978465696    0.87609303152396    0.02487927310079
N           7.41823316944647    0.08178388615543    0.01953434601438
C           8.64635061812188    0.63816104743731    0.01680526581052
N           8.95613871313731    1.93698070781660    0.01686364965416
C           9.85272207832417   -0.14639067606709    0.01247648144882
C          10.15336159307589   -1.50484658111993    0.01053334061698
C          11.48339907436423   -1.86293347280645    0.00617672912817
C          12.50444639543918   -0.90370877005783    0.00379389405086
C          12.23153287960343    0.44627486705612    0.00568224422676
C          10.88965692829513    0.81210217036197    0.01007190562959
N          10.27195300625231    2.03004516371286    0.01284751245306
H          10.70513960583493    2.94151621663569    0.01190491665434
H           0.98554945937915    1.02541454420735    0.03858525347610
H           0.97545631090441   -0.51756515561396    0.91875430565288
H           0.97005117169482   -0.51851993687421   -0.84005143044649
H           9.36165014107204   -2.23611340172444    0.01236797766195
H          11.75504070525404   -2.90778391832005    0.00452162333347
H          13.53191157630189   -1.23549979817766    0.00040450347511
H          13.01712167820451    1.18599001395436    0.00386995932020
