26
         -50.274507851049          0.000596655246
C           3.14093804526624   -0.90592111106927    0.14801474043859
O           3.75823494004843    0.30328406498878   -0.26997169430710
C           3.96930654007468    1.18980081488491    0.68396125592859
S           4.75605416047955    2.70918632284864    0.28816838076535
C           4.58733179959303    3.04964216604099    2.03660897970439
N           3.99055146664942    2.09053333515192    2.67823562446216
N           3.63812249793983    1.06754077019268    1.92634464827968
N           4.83854082749310    4.28513325204527    2.45747100170817
N           5.27183247868313    4.53165104207799    3.62123873390441
C           5.25900869527353    5.81184416030426    4.04983444444926
N           4.59559149658243    6.83342998072341    3.50545691378441
C           5.91637964623744    6.24622640451637    5.25311658351224
C           6.72404762492979    5.64985278782326    6.21668337594835
C           7.16781455110820    6.43887657707334    7.25465808449297
C           6.82897377671085    7.79511094213779    7.34564393842021
C           6.03368942165558    8.40848993669717    6.40340342117792
C           5.58134094217292    7.61477954213120    5.35452122692221
N           4.78718667086948    7.88660261037184    4.27803945521542
H           4.33942708078069    8.76044784355471    4.04575216072074
H           3.00305411601338   -1.49552976324141   -0.75534384031849
H           2.18081699184220   -0.69825719857490    0.62445125583348
H           3.77988198871483   -1.43474735462978    0.85848262605712
H           6.97971786811796    4.60546233848964    6.14223297168475
H           7.79234324689695    6.00877519178939    8.02304107177147
H           7.20228571794653    8.37127627963803    8.17889187989490
H           5.77204740792043    9.45300906403616    6.47207275954836
