30
         -60.381069478205          0.000554295475
N           1.74916459021886    0.05376752857643    1.41260109327525
C           2.85517257900689    0.04912325565513    1.10790341048356
C           4.21030309881831    0.06301068053010    0.76812044457724
S           5.42373532681807    0.75326220130612    1.85867465274686
C           6.58739455893074    0.24693068156470    0.61643486225298
N           6.00699490763023   -0.30939507450897   -0.42596959011615
N           4.71868170148675   -0.40001136394527   -0.32756142582030
N           7.82217284568510    0.69966747653514    0.68291220329056
N           8.89364401481821    0.05693777317385    0.51346920556274
C          10.02692619341853    0.76282432220393    0.35324865831055
N          11.18475381546117    0.11014975163478    0.28992210087712
C          10.25780851502243    2.17692255745773    0.17706792687672
C           9.45072548064667    3.30820020331322    0.14632827700939
C          10.06484246071604    4.52597626576121   -0.05352635887988
C          11.44846756531575    4.62249106247486   -0.22357343131261
C          12.26655277926774    3.51192803452955   -0.19913166698272
C          11.65476325736193    2.28106610530323    0.00567888111654
N          12.14737174126362    0.99095960724196    0.08768989949913
C          13.44284748026922    0.53103292535065   -0.01425175136099
C          13.81153101689811   -0.78750131899625    0.04624871283080
C          15.20138216671237   -0.95993040766006   -0.08407029771400
C          15.86849377622537    0.21351178494815   -0.23968351960566
S          14.81481227518593    1.57024204503073   -0.23139097227128
H           8.38381112192781    3.22451657693012    0.27587665012230
H           9.47005682617752    5.42604317082063   -0.08127835332837
H          11.88997533832466    5.59469848623857   -0.38035983279232
H          13.33066606388949    3.60821944523991   -0.33603192171783
H          13.09784916312278   -1.57858410198244    0.17754436956678
H          15.68570306811990   -1.91883071209862   -0.06351187648672
H          16.92080627126079    0.37463103737180   -0.36122035000913
