32
         -59.054258353007          0.000465593840
N           1.52576091040914   -0.11594528825948   -1.10575439345139
C           2.85618613331456   -0.10347559833217   -0.87490694244804
S           3.91347969225748    1.12671420733730   -1.56347412458151
C           5.23272737980584    0.17157885430847   -0.81168233966775
N           4.78814378415795   -0.85708521809936   -0.16442027802705
N           3.48095319293983   -1.00542551816956   -0.18551555166055
N           6.45180546793616    0.70921073572155   -0.81559179061170
N           7.48609345835319   -0.03380292431882   -0.70445543384177
C           8.66527582211452    0.59163541189876   -0.51019529315711
C           9.85930847400376   -0.10419677617527   -0.43272945662224
C           8.99693361908627    1.98682082686676   -0.30675932593404
C           8.24107663264826    3.15130818503210   -0.25664468730314
C           8.89170316452444    4.34174693338350   -0.00019910840658
C          10.26667352210058    4.37971286550935    0.22219392275078
C          11.03772279184482    3.23364396721326    0.17199904243649
C          10.39305149420915    2.04060377104396   -0.11438757363835
N          10.89284712417875    0.74630694861912   -0.21409727204350
C          12.21559582465768    0.36386365766289   -0.09428635207256
C          13.33404417039118    1.02261529595005   -0.51731485966302
C          14.51974547631116    0.31948789509493   -0.21518017724065
C          14.29086848816332   -0.85592051251546    0.42127652141537
S          12.61635476717240   -1.14236658085191    0.68388559860966
H           1.08130824699441    0.73957747947999   -1.38952424685266
H           0.98750306256114   -0.75644660764933   -0.54604617451324
H          10.01670469634349   -1.16090513265073   -0.53195892644477
H           7.17500779080592    3.11057509883733   -0.41105981717283
H           8.32727098945571    5.26112876095540    0.04190587425224
H          10.74103649544802    5.32412780374991    0.44322316489375
H          12.09721113661873    3.27183612485638    0.37021479664389
H          13.31139925837797    1.95226563087207   -1.05467438384168
H          15.50063316382463    0.67567906590999   -0.47278906972352
H          15.00294376898909   -1.58409936327595    0.75396865791938
