29
         -53.428491421255          0.000890109078
C           1.49135876450747   -0.22247228330113   -0.10434374603418
O           2.88276681578619   -0.23161945276141    0.17145766680482
C           3.31060261063335   -1.27420838319180    0.86492963546802
S           5.02254295572143   -1.41216012505309    1.23618321562052
C           4.54455957386894   -2.94443826333577    2.03164780243961
N           3.27052684197915   -3.16487089556935    1.96641632419828
N           2.58460625226052   -2.23285807140484    1.32366336779538
N           5.45589023938934   -3.57122741308205    2.77415494448554
N           5.43960187759856   -4.84052488977849    2.91068729989070
C           6.24948142567732   -5.37466434172559    3.83967681786675
C           6.32271570209629   -6.75322958722270    4.04086151269900
C           7.13882922694878   -4.78195691987909    4.81228104512421
C           7.50021905207642   -3.47591121941412    5.12280567877740
C           8.40832377843464   -3.27536989569795    6.14278663607492
C           8.95945430533293   -4.34470124111082    6.85007145146096
C           8.61772920653987   -5.65071448833772    6.56049294134610
C           7.70389559349703   -5.85431306734725    5.53673679716710
N           7.17095999342093   -7.02668862547708    5.04237202178688
N           7.55146374569743   -8.29092779809997    5.47438819021303
H           1.30411719095211    0.69487584112358   -0.65750581642981
H           0.91872800134063   -0.23681397670352    0.82488082179854
H           1.21465129145350   -1.09436961616987   -0.70018297412160
H           5.80053086235909   -7.52380007278641    3.50699671036747
H           7.07577705390089   -2.65224398906748    4.57196422840310
H           8.70485283731375   -2.27016955071759    6.40201476434851
H           9.66967904857335   -4.14607324627395    7.63844451807173
H           9.05515757568121   -6.47736264995769    7.09932787797327
H           7.51386176442837   -8.34666428025836    6.48958266298765
H           6.94536641253058   -8.99463149739454    5.06379760341873
