23
         -46.749691394736          0.000497520364
C           0.82646005735698   -0.82174825701393    0.45711060889814
N           0.74773512639208    0.51322565905240    0.28482141390716
C          -0.43980422886587    0.74583526690473   -0.21241168768923
N          -1.15039140948252   -0.38856931171371   -0.37477852689989
H          -2.08286079204546   -0.50907937608545   -0.73604933803949
C          -0.35191020050266   -1.42111295855571    0.05174342856422
C          -0.78332725473691   -2.77525752984681    0.01936633532036
S           0.19683987111476   -4.11329305715243    0.59853636783935
C          -1.20531654524453   -5.12268768480699    0.16618209718496
N          -2.18137661304441   -4.42786928066774   -0.35715017279107
N          -1.93935262802833   -3.14860570183565   -0.44526194650378
N          -1.04919667075042   -6.43792748923324    0.15074990831278
N          -1.94292146001283   -7.26765991148487    0.46508829124295
C          -1.71727292535774   -8.57766532820125    0.18431750244258
C          -2.57907297185969   -9.62230792419384    0.61645127035918
C          -2.02112762280261  -10.76150264244039    0.10451362190547
N          -0.71311736189247   -9.08095689520358   -0.54527677367150
N          -0.91504599822004  -10.37690840656770   -0.57888802428276
H          -0.27368408532322  -10.96735827566202   -1.08844779819256
H           1.70611310623309   -1.28668577828197    0.85435571692687
H          -0.81199991599328    1.71854133457079   -0.46476275096912
H          -3.45967116329745   -9.51233635006037    1.21190417445916
H          -2.31701831363611  -11.78867010151988    0.16838628167794
