27
         -61.051985601536          0.000845222500
C           0.86360731873504   -0.83636205917566   -0.26704765938213
N           0.73941872749581    0.50111710901898   -0.19091637917529
C          -0.51703253910960    0.73517289811355    0.09377997821406
N          -1.22912470622326   -0.40241770902887    0.20774600261289
H          -2.20637695740541   -0.52122533538385    0.42098241134086
C          -0.35889868144384   -1.44003270782116   -0.02104435695180
C          -0.76941766091898   -2.79785841615614    0.02003940793798
S           0.29856581953385   -4.14498256815349   -0.29800899967501
C          -1.14531833099513   -5.15249989633300   -0.04489814161935
N          -2.20017850835873   -4.44435955531207    0.26284644282375
N          -1.99136351443985   -3.16441544537112    0.30976943729655
N          -0.97693950836554   -6.46826426796876    0.02276563722644
N          -1.93385556660682   -7.27088360646327   -0.20510084236526
C          -1.70609651837375   -8.58732400681282   -0.00466361134343
N          -0.52662852550195   -9.17809140659693    0.18671123244005
C          -2.73676613773481   -9.58495897514737   -0.04279872716429
C          -4.11907260091495   -9.69943284670767   -0.18597358336415
N          -4.68456210986279  -10.88751055724031   -0.15450299875714
C          -3.92519966200403  -11.96573478105026    0.02349452599590
N          -2.61824918531626  -12.00940957443865    0.18205664691238
C          -2.04911999569475  -10.81463497409270    0.14505909809361
N          -0.75070095547222  -10.46205742834460    0.27032807653668
F           0.30478634500795  -11.30786869263673    0.39368399439436
H           1.80217023169768   -1.30242594992743   -0.48843721059406
H          -0.93635406802331    1.71263153267755    0.22308380290020
H          -4.76331973487812   -8.84307469297204   -0.32687546700025
H          -4.44024297482581  -12.91577608667500    0.04205128266593
