30
         -60.048762852469          0.000760110402
C          -0.85881691629478   -0.42205946963009    0.75722725227955
C          -0.26120918756243    0.70504183518290    0.26758925425542
C           0.49387876784239    0.26192817105638   -0.84086599082518
N           0.36712496761984   -1.03038190654393   -1.01377181048580
N          -0.45486338613106   -1.44960223351084   -0.04430190285196
C          -0.80871365178666   -2.75949077610081    0.07140913580687
S          -0.24783247283431   -3.96440750710187   -1.06439080003553
C          -1.23548574347657   -5.08584949130454   -0.09420114046268
N          -1.81677231711178   -4.50054433000723    0.92029151497589
N          -1.56989928079699   -3.22207406889391    1.01556431418093
N          -1.10530686160213   -6.38851729484419   -0.30782437599748
N          -2.04640001275042   -7.21480855579749   -0.14546504544367
C          -1.75967090898501   -8.53021122088021   -0.10064769226001
N          -0.57981420829259   -9.07757809402808    0.19798503075595
C          -2.74274360672198   -9.56614087573242   -0.24173071616093
C          -4.09311536141327   -9.74307167281506   -0.52671770959429
N          -4.60277247890476  -10.95884141705714   -0.55280840942164
C          -3.80864713896120  -11.99821751679614   -0.31140917903616
N          -2.52035409863254  -11.98179131541732   -0.03508546040804
C          -2.00760370981334  -10.75632553297018   -0.00495716097511
N          -0.72926985831068  -10.39014264708630    0.26193242617251
C           0.35612420927777  -11.25916256896755    0.60995843346714
H          -1.51947254824111   -0.59922503568888    1.57997057830396
H          -0.34243627276384    1.70504127386422    0.63944189201108
H           1.11139871816876    0.83779111718747   -1.50076022748314
H          -4.76429578329309   -8.91944821901559   -0.72633414092885
H          -4.27687375931163  -12.97237271747207   -0.34758401052911
H          -0.02790396554518  -12.27672866465622    0.63910610529836
H           0.75840299145545  -10.97816318988724    1.58386550935435
H           1.15116387517053  -11.17816607508571   -0.13248567396264
