29
         -60.492078819334          0.000707202149
C          -1.28898924711366   -0.34738745347479    0.01098985561568
C          -0.47740261375693    0.75101973880244   -0.00211959520698
C           0.83632893297929    0.23013133505636   -0.01827507398750
N           0.82630884289016   -1.07903142724518   -0.01563389690582
N          -0.46380191115602   -1.43493160212820    0.00205087335069
C          -0.84176597380557   -2.74301157119390    0.01058571218556
S           0.31564223829913   -4.03767850186361   -0.01098390570210
C          -1.12176804722321   -5.09424602280775    0.01440265874522
N          -2.23434418345485   -4.42164026168195    0.03897444350836
N          -2.08897171542484   -3.12608898566262    0.03736036493176
N          -0.88963977451515   -6.41355825842757    0.02678698311043
N          -1.90003838020723   -7.20185708618917    0.00744146523645
C          -1.65042484580676   -8.52239827697157    0.02637343627491
N          -0.45178928506961   -9.12469510201925    0.02569713285230
C          -2.68653555651511   -9.52037258906412    0.03613593238241
C          -4.07893582350153   -9.51163056866605    0.04378406527944
C          -4.72569350998659  -10.72778296682316    0.05347091183013
C          -4.02332413491977  -11.94091009289414    0.05609079275057
C          -2.64702130266039  -11.98301945682759    0.04985626344470
C          -1.99542248337719  -10.75529661086657    0.04065276799851
N          -0.68685448531798  -10.39655373016667    0.03382403238041
F           0.35875156633586  -11.27572810414495    0.02117526863065
H          -2.35153520267317   -0.47076176389896    0.02524912460036
H          -0.76610905078956    1.78134072755476   -0.00045618316743
H           1.76510513285447    0.76423585502551   -0.03133834963928
H          -4.61344687850842   -8.57603741631224    0.04195286645639
H          -5.80460827897167  -10.75647458919449    0.05932152770478
H          -4.57897033067185  -12.86601091026573    0.06321391282895
H          -2.09873369793198  -12.91140430764941    0.05182661251051
