31
         -59.310145716065          0.000877297392
N           1.57982062094839   -0.21610556925596   -0.98487627641963
C           2.91739251608289   -0.22104660731313   -0.82820445679723
S           3.94610360792836    1.03712801685739   -1.50355044814665
C           5.28218166617597    0.13052934447226   -0.71737900543016
N           4.85551674067958   -0.90808346490066   -0.07261360400597
N           3.56032564206266   -1.10179629079638   -0.12139143862378
N           6.48440024844439    0.70271514619718   -0.72826900536927
N           7.53682583671681   -0.00471959617149   -0.55743203783209
C           8.68631065733104    0.68397693794425   -0.40404480721329
N           9.83081403076782    0.01588064389423   -0.34074261054235
C           8.94174508224949    2.09871290089267   -0.25530137922018
C           8.15385735964484    3.24385014256464   -0.23630811050604
C           8.78871764533062    4.45571193353355   -0.06869075237886
C          10.17558518107903    4.53430507365035    0.08264264994089
C          10.97528166896344    3.41049490601518    0.07053791674203
C          10.34213199867909    2.18572039291760   -0.10320607640510
N          10.81550778511567    0.88962979418698   -0.16648432234919
C          12.10339825972647    0.40930442243616   -0.07834825201754
C          12.44769047107847   -0.91589891578099   -0.08260817750491
C          13.83944819586528   -1.10818643851475    0.00583873618334
C          14.53284334793811    0.05691275662251    0.07415462691654
S          13.50012985653582    1.43256616543403    0.03194959581402
H           1.17882859199963    0.35973213612490   -1.70386632510044
H           1.09211230179463   -1.05617222675174   -0.72164701956768
H           7.08482685605351    3.17044549584649   -0.35297457626423
H           8.20833455079262    5.36586617182904   -0.05179027195663
H          10.63449341898363    5.50262544575216    0.21453327814058
H          12.04272101831262    3.49149447900179    0.19358941849282
H          11.71504342838846   -1.69776326369693   -0.14652893616617
H          14.30502910693952   -2.07676814136169    0.01892253264878
H          15.59118230739228    0.20576820837274    0.14892913493907
