30
         -60.257780030324          0.000905940009
C           0.92086310440692   -0.84869411241581   -0.00382221655639
N           0.78878829534844    0.49245868883931   -0.00657951958920
C          -0.49810900863419    0.73100332957109   -0.00083288450537
N          -1.22213794476357   -0.40545574917696    0.00559835728250
H          -2.22241996557654   -0.52484577633411    0.01080390547553
C          -0.32635608432968   -1.44647943307146    0.00382785430789
C          -0.74683829683324   -2.80482772268490    0.00914433722350
S           0.35524176796957   -4.15787152470508    0.00795453932018
C          -1.12058749226974   -5.16106897645628    0.01685202410437
N          -2.20286330982818   -4.44571984648853    0.01939046226801
N          -2.00495451350921   -3.15659215261844    0.01521459772928
N          -0.94319855431599   -6.49109937645918    0.01807415493413
N          -2.00062749247563   -7.22436790669621    0.02723616731961
C          -1.80220536154972   -8.55605769830420    0.02685782418503
C          -2.86842863400106   -9.45031010858669    0.03530737717111
C          -0.59318113829083   -9.35593841901099    0.01893355818277
C           0.76481319437298   -9.05796054426797    0.00927636293182
C           1.66440811563581  -10.10587988350060    0.00406467196483
C           1.24069337757308  -11.43521608472741    0.00824232484904
C          -0.10114816041879  -11.76206383325760    0.01786354428973
C          -1.00162182878679  -10.70920103779642    0.02311086797742
N          -2.37004572470406  -10.69386647556996    0.03280607233839
F          -3.14707074963606  -11.81947678112797    0.03908095127418
H           1.88339540865141   -1.31910426092326   -0.00743230122259
H          -0.93267938020237    1.71059189236914   -0.00117011074280
H          -3.92081438489228   -9.24948075798740    0.04251344324350
H           1.09019864219334   -8.03055940744421    0.00607419825570
H           2.72317661981754   -9.89597394304520   -0.00342226055646
H           1.97642834107212  -12.22475048154045    0.00391966023219
H          -0.43753884202329  -12.78716161658231    0.02122203631213
