26
         -54.722699176698          0.000568925885
N           1.62384326879446    0.53720337569639    0.41615437317658
C           2.75014797599205    0.45939401407280    0.21315551489758
C           4.12842490177671    0.37630333796460   -0.00135832538562
S           5.28556649745106    0.90978041558022    1.22721163828762
C           6.51496258296828    0.34847117904506    0.07733366396577
N           5.99128943733100   -0.11039349070290   -1.04260958995408
N           4.69771891152718   -0.08390753400083   -1.06929054440615
N           7.77252750046194    0.67265355856400    0.28329345377584
N           8.78612295831415   -0.05859183488092    0.15978746231344
C          10.00728578002933    0.50801247251245    0.14169858129441
N          10.28142903617452    1.81166540637766    0.02361613894223
C          11.23046961833788   -0.23686959492838    0.17497149728947
C          11.69935609620959   -1.54788935425624    0.27131331210261
N          12.98653944469393   -1.78696813115883    0.25960493714413
C          13.85152607824002   -0.75431759236396    0.15519335030553
N          15.15263654807462   -1.07925695816621    0.16209498801042
H          15.84348909111399   -0.36092635916886    0.04908159606063
H          15.40829365679250   -2.04864647480206    0.19730230859534
N          13.53717714920104    0.53912859253766    0.05611677395817
C          12.23079623077436    0.75823739504507    0.07039201800327
N          11.59174467524655    1.95533958625485   -0.02119928052501
C          12.20713483071825    3.24129587620478   -0.16325634096375
H          11.04108587082986   -2.40131936212304    0.35348688333494
H          13.27732661615875    3.08562144763321   -0.28110315695316
H          12.01300690243717    3.85006492973644    0.72126755138804
H          11.79729834035219    3.75216509932655   -1.03480880465856
