31
         -63.738516705305          0.000581027093
C          -0.97931870069555   -0.37345505698656    0.69128000519060
C          -0.17789238288712    0.69700857339286    0.40523801819946
C           0.91723409560689    0.15019217174818   -0.29629416047551
N           0.79517776130988   -1.14880445905541   -0.42677138334047
N          -0.35662009346150   -1.46866101951450    0.17183192677258
C          -0.80555230647502   -2.75588991382530    0.22183781397597
S           0.04792316269579   -4.06037302808298   -0.57223314729018
C          -1.28751548449046   -5.07295534363275    0.03962374300314
N          -2.15225987925386   -4.39416070475469    0.74543794456873
N          -1.87892854684041   -3.11903259287467    0.85098480545790
N          -1.16911584415032   -6.38974918652742   -0.05602478008050
N          -2.17147016740241   -7.16180810964201   -0.17650947157969
C          -1.98234017081086   -8.48111698311600   -0.02473679435843
N          -0.85920278221118   -9.10241523366443    0.37392026573882
C          -3.00605618616857   -9.45789755293626   -0.24489063928958
C          -4.34057519678634   -9.55726693751693   -0.64318742052273
N          -4.91934689474022  -10.72958662543080   -0.72101455825435
C          -4.21282589832333  -11.84079965417268   -0.41957232831665
N          -4.86457508885205  -13.00761677488556   -0.56773503975905
H          -4.43065180322752  -13.85163887936315   -0.24175118517558
H          -5.85038586923911  -12.97884111513229   -0.75405232228069
N          -2.94090755094416  -11.89020153102200   -0.02204951049655
C          -2.38230174716688  -10.68946172373257    0.06075049417405
N          -1.10713711701729  -10.39009322549727    0.42466448037599
N          -0.17308968708286  -11.27823722002614    0.89549090905323
H          -1.91419084000220   -0.46966170391104    1.20239733394640
H          -0.34153909414310    1.72454541055793    0.65542646096751
H           1.77261446631056    0.65579909245811   -0.69747754788482
H          -4.94026892726995   -8.69428765568527   -0.89542726444544
H          -0.27205899182982  -12.17589487557123    0.43203570822048
H           0.75656776554957  -10.88036814159995    0.80829764390441
