36
         -69.662618519489          0.000805571492
C          -6.78874910417738   -2.18324233271925    0.08077946920417
N          -7.05413752975364   -0.86251326273584    0.08566677742835
C          -5.89314797410851   -0.25806177659804    0.07287321714439
N          -4.86887008331115   -1.13312189797021    0.06067820789682
H          -3.87777551142646   -0.95311797045891    0.04985099385028
C          -5.42083711020169   -2.39034969702661    0.06564152716593
C          -4.62038126151942   -3.56460735228407    0.05593103706700
S          -5.26840217972713   -5.18268755658319    0.06614884255799
C          -3.56118149346015   -5.70268443317051    0.04635917703327
N          -2.74012393761534   -4.69450272452140    0.03302725361096
N          -3.31192797897184   -3.52567479832909    0.03804510480343
N          -3.34357053370994   -7.02125756315441    0.03907271571526
N          -2.12106371102960   -7.42693187235558    0.04232156423639
C          -1.93867399847976   -8.75833459963278    0.03149842705440
N          -2.88750036144493   -9.69592393368723    0.03066161986351
C          -0.64557817784932   -9.38792915643102    0.02521500723079
C           0.66638759373596   -8.92755020832491    0.02227553745697
C           1.67269188762781   -9.86807438667449    0.01584807810752
C           1.39036571997024  -11.23864544831566    0.01225550756853
C           0.09747891229287  -11.71663864109288    0.01463502250729
C          -0.92271064734610  -10.77249003345904    0.02090400305268
N          -2.29597603585617  -10.88365361953657    0.02522453792398
C          -3.10430554732048  -11.99909819936771    0.02661186578361
C          -2.89852599601123  -13.36114120560443    0.02178487046821
N          -4.09403283745190  -13.99457692141947    0.02725619065380
C          -5.00801405650279  -13.06353875992922    0.03385508941615
N          -4.46228034608173  -11.82704683328206    0.03429635120959
H          -4.90172703571416  -10.91892855744754    0.03886362291887
H          -7.57251108135721   -2.91327168954308    0.08857206772180
H          -5.76320374233301    0.80551394490244    0.07259400897603
H           0.86800304937649   -7.86877741366382    0.02513585859098
H           2.70397852319544   -9.54917136160916    0.01360519101733
H           2.21012464792459  -11.94107409198678    0.00745840694337
H          -0.10654009832718  -12.77381559482854    0.01170952320750
H          -1.98769836732137  -13.92105910529011    0.01532698141303
H          -6.06346359571404  -13.24376094586857    0.03909634319975
