27
         -50.476442576885          0.000621553333
C           1.42533775333855    0.01555330878280    0.06682475310272
C           2.90368364067472   -0.01255751799602    0.06399530663364
S           3.88031535123720    1.43718076153775    0.06210907677589
C           5.26677519867943    0.32834597217268    0.05931750276927
N           4.90107557010230   -0.91588776994312    0.05997793274766
N           3.60608324460377   -1.09809728160760    0.06253817328095
N           6.49218639657542    0.88402449823712    0.05588813948755
N           7.49520426486549    0.08477837327903    0.05430986260809
C           8.71709171595009    0.66235623252990    0.04975799612128
C           9.87052313273314   -0.09489137174049    0.04613513659083
C           9.12938477992993    2.05652380409419    0.04716557618641
C           8.44574153639167    3.26559217455904    0.04892125395503
C           9.18719158926320    4.43208626124806    0.04527927700601
C          10.58033724795014    4.41151720078939    0.03996785416857
C          11.28200013681335    3.21937881854225    0.03820043279301
C          10.53533485482491    2.05524347409610    0.04191641784270
N          10.96416467116806    0.72525157497270    0.04127484224075
C          12.22874352747941    0.33536450059225    0.03616859971456
N          13.32632683258883    0.00855458482021    0.03305752500614
H           1.06051981654341    1.03842654269968    0.06599272599828
H           1.05039770284143   -0.50385760931086    0.94765316158239
H           1.04706702699627   -0.50656497205982   -0.81096103111175
H           9.96956868697506   -1.16316931331843    0.04645028164368
H           7.36813484549211    3.27901043363851    0.05298136303655
H           8.67815768841101    5.38401550430709    0.04654731520273
H          11.12420506288650    5.34366228639369    0.03716990010575
H          12.36104772468470    3.19371952868398    0.03413062451138
