25
         -54.431776832634          0.000980362372
F           1.37728324049213    0.44061679505222   -0.31695911006524
C           2.67418222189318    0.36664520317797   -0.12981386263552
S           3.79608772716619    0.96341901104391   -1.34426970475494
C           5.03605232444615    0.38180031587288   -0.20396661848335
N           4.52724970473289   -0.12545516528496    0.88673214903023
N           3.21427058354690   -0.12206328101309    0.92205039917700
N           6.29419307122453    0.74025656446712   -0.40927244716271
N           7.29677977786619    0.00049078453220   -0.22067985247163
C           8.52358008725233    0.55553907761948   -0.20766399144634
N           8.81151777893746    1.85613322945724   -0.09425250880643
C           9.73911100623049   -0.20317133563187   -0.22112136204490
C          10.19289603205855   -1.51967160203221   -0.30626631402085
N          11.47736519494750   -1.77493214722532   -0.27826486219962
C          12.35270682105478   -0.75205756958060   -0.16983770966346
N          13.65050712355226   -1.09264011189039   -0.15842812428286
H          14.34895304482678   -0.38169094534174   -0.04643343253290
H          13.89476141272353   -2.06504516621912   -0.18889787122075
N          12.05378314276176    0.54570175307849   -0.08228647550473
C          10.75005012470398    0.78095261575272   -0.11195699312670
N          10.12402232483266    1.98506966506990   -0.03251183788697
C          10.75139087513677    3.26383783907692    0.12211031991430
H           9.52493248604640   -2.36516745670589   -0.39165698332139
H          11.82170071501162    3.09770994363667    0.22332919006787
H          10.35852236204540    3.76431125399760    1.00764143852476
H          10.54933081650842    3.88802072908990   -0.74965343508188
