22
         -55.417031510059          0.000365056861
F           1.37097903669807    0.28211556270210    0.27056417317524
C           2.66719518466495    0.21602957635311    0.09310602932212
S           3.77483085370997    0.94335138493691    1.24310666080233
C           5.02538243950921    0.27870678625511    0.16704580636339
N           4.52864620171568   -0.33722817958916   -0.87211159908315
N           3.21921762051856   -0.35931043534365   -0.91022535483690
N           6.28111187400346    0.66628081722785    0.34747148977798
N           7.28180707442859   -0.07455272752398    0.15422888419878
C           8.50734324952499    0.47957827877040    0.10010191421739
N           8.78911523602143    1.77044280659026   -0.10605208852436
C           9.72575797328306   -0.27323717125443    0.15256988386976
C          10.17754217048028   -1.58504366031822    0.32664476486323
N          11.45773786699298   -1.84938889236006    0.30108234543303
C          12.34215140716243   -0.84451794835612    0.11029628233571
N          13.63391823251351   -1.18936997902070    0.09725588140601
H          14.33157297706112   -0.48213014246614   -0.04610529530281
H          13.88212159137734   -2.15426053198439    0.21742082501972
N          12.04625725373454    0.44749629032288   -0.06250937839508
C          10.75031171645172    0.68897291183126   -0.03691621554017
N          10.08838043257893    1.86172065189143   -0.17876430326108
F          10.64796290490049    3.06709729218390   -0.46098759128327
H           9.50432670266791   -2.41617269084713    0.48144688544232
