32
         -67.810799784147          0.000801038499
C          -0.83262556553309    1.27222613175649    0.32479063119457
C           0.45254968527180    1.18938195754824    0.00571590417197
S           1.28481834014507   -0.26975063946293   -0.51792020604374
C          -0.07884535521800   -1.37545149515058   -0.46389270763022
C          -1.31702222843310   -1.05863765448753   -0.10024961753843
N          -1.74177822764150    0.20857106244480    0.29639480863627
C          -3.02234420029270    0.44165886175455    0.65053014015158
S          -4.27515212370786   -0.78747201726272    0.67593178494972
C          -5.34183770443270    0.54425322097296    1.22920208724826
N          -4.70452243361800    1.67441001320268    1.32015886876057
N          -3.45145964434612    1.63674281288064    0.99957255252692
N          -6.63236887404151    0.25534648353215    1.35769496850017
N          -7.41386672020230    1.11275087005600    1.88788373095272
C          -8.71517408089332    0.79963067797915    2.03780248492393
N          -9.20285439858083   -0.40578627328874    2.27212623962885
C          -9.75637388312013    1.78944647346079    2.13705324554933
C          -9.94038248713992    3.16303552532932    2.01043724120494
N         -11.13254613538536    3.68829272716396    2.17484104136552
C         -12.17007999233270    2.87811052658483    2.45907629504476
N         -13.36214020785360    3.46978381116343    2.62061381386564
H         -14.16976418009134    2.90161496012582    2.79847741378480
H         -13.43512578621868    4.46094436754995    2.48581976626269
N         -12.12621889168723    1.54784442278122    2.60170398285117
C         -10.91912859396750    1.04766340277900    2.43647801522696
N         -10.53089591915885   -0.26946798925533    2.52773633152795
C         -11.30059957561325   -1.29903349688321    2.85047636175343
N         -11.97499483858774   -2.18296156425242    3.12243256642739
H          -1.27945963575447    2.20337400999795    0.63828214372421
H           1.09418398057598    2.05135905153136    0.04920117048567
H           0.17353782762567   -2.37803988904960   -0.76046347645109
H          -2.09337496648307   -1.80967764687027   -0.09726118801574
H          -9.13086318328237    3.84235729537151    1.78287360495952
