23
         -50.976232739099          0.000778296132
F           1.48222498382421   -0.02564321387991   -1.03466589932562
C           2.76134809637292   -0.01255053639190   -0.75239479390870
S           3.88799773769801    0.92985209815684   -1.71455718297783
C           5.10370428769495    0.24380717291369   -0.61198568297429
N           4.58550113315395   -0.52434884686574    0.30340639292263
N           3.28277853519907   -0.65725248469035    0.22236859061011
N           6.33449574202933    0.74809505616302   -0.64169543886029
N           7.37926364267454    0.05711388824062   -0.47421635642815
C           8.53337351739457    0.73767929044606   -0.30532753025647
N           9.67869898945121    0.06387074738839   -0.23453386408903
C           8.79673679901951    2.14532490961425   -0.13990332779064
C           8.14460078344765    3.37516608257608   -0.09897471932087
N           8.84229371932543    4.47870061030711    0.08176176635603
C          10.16128861415352    4.39585120401237    0.22718330362873
N          10.90510928533246    3.30742083102049    0.21508500413533
C          10.20275077043489    2.19661793253181    0.02963231298016
N          10.66136077011116    0.91771994569729   -0.03934853586250
C          12.02393287330381    0.49140505324733    0.08421145763712
H           7.07426356304389    3.47840694030036   -0.21238415269296
H          10.68390536440694    5.33102282045884    0.37346178634276
H          12.64553098768129    1.38002574201304    0.17175596653753
H          12.31044813601916   -0.08844789065383   -0.79327877122565
H          12.13957166822785   -0.13580735260611    0.96909967456226
