29
         -59.835451504431          0.000982608679
C          -0.84229310761521    1.30850968870049    0.05940657651447
C           0.45467391656975    1.20533711598058   -0.20000695850356
S           1.35953100189114   -0.30073988647347   -0.31095844709049
C           0.03430547228829   -1.41643714616408   -0.01794401725600
C          -1.22550917888388   -1.07211931410216    0.22603389118289
N          -1.70799522627286    0.23363265352997    0.28803521060478
C          -3.00262622654447    0.49204005236772    0.57188319577077
S          -4.19833447918770   -0.75079082263641    0.90815533572939
C          -5.32639240764019    0.62807617409097    1.13464834308064
N          -4.74298115582790    1.77307339956037    0.93413133283192
N          -3.48745383861001    1.71247366739402    0.61483199965533
N          -6.60238527947610    0.32264774378476    1.32603159881569
N          -7.41250092037513    1.21434058435876    1.75331652186557
C          -8.70943822182514    0.86094562950317    1.88752057451620
N          -9.20834412853507   -0.36992263750934    1.94074881377227
C          -9.76098925841976    1.81704110025055    2.10487340006048
C          -9.96352261555216    3.19002942185621    2.17656245750319
N         -11.17458938801585    3.66322462182942    2.40387028299953
C         -12.18135609442478    2.80792028248611    2.55264063712680
N         -12.13874162184314    1.49086707236512    2.50477777925164
C         -10.91960685653878    1.01542333410276    2.27996314621671
N         -10.51664247830578   -0.27260976658969    2.17959974800349
H         -11.07279814210370   -1.10649108604250    2.29120604066234
H          -1.33373746723738    2.26807258139481    0.11357105034416
H           1.06111141558671    2.07759776321428   -0.36720268864760
H           0.33117323331595   -2.44948122682714   -0.05284926005454
H          -1.97473303762333   -1.83152696901665    0.39508674560048
H          -9.16355502414524    3.90769491678961    2.05815167906509
H         -13.15338888464764    3.24615105180039    2.73400501038024
