27
         -50.472082614301          0.000614022870
N           1.66997608480705    0.09278807065308   -1.34443951905170
C           2.77340164404067    0.07345299897073   -1.02978269277228
C           4.12559682476636    0.06530400659852   -0.68206740533841
S           5.35061158591702    0.76995924258171   -1.75387713276905
C           6.50493729148649    0.22097732933275   -0.51927685362191
N           5.91645046847335   -0.35968788241248    0.50470969298307
N           4.62520670491194   -0.43586821749323    0.39989833240476
N           7.74841201936990    0.64931815428151   -0.57070748691139
N           8.81061590834680   -0.02195338334869   -0.46419575092104
C           9.97195271198496    0.62784550086385   -0.29236895428618
C          11.19079624484015   -0.04692344991268   -0.23635962471702
C          10.28041077261615    2.02801778851891   -0.09943979541432
C           9.51760771306258    3.18791730560980   -0.05060150345687
C          10.17029530723265    4.38724910538792    0.15711342889724
C          11.55429278132212    4.44379145377571    0.31555937050408
C          12.33194191196917    3.30242992849326    0.27044742073885
C          11.68046442294665    2.09638614487517    0.06066515327347
N          12.19410358772750    0.81577696901620   -0.02966071455439
C          13.58511339784137    0.48562129899715    0.09078315004447
H          11.35697344505430   -1.10263716184917   -0.33505810420358
H           8.44711992884958    3.14447558497616   -0.17168406808130
H           9.60052740533076    5.30300630785279    0.19913827859483
H          12.02774980060450    5.40014009581371    0.47763340740563
H          13.40269786094748    3.35292611909425    0.39473092271125
H          14.16656028049947    1.01635770737042   -0.66622863467364
H          13.71792467750057   -0.58604218585567   -0.04463391797458
H          13.95796921755255    0.76869116781003    1.07812300118634
