31
         -60.102731227608          0.000578725229
C          -4.67465638779096   -0.81837616362184    0.36226928427790
C          -5.71953032260708    0.02323922473561   -0.06573845392835
C          -6.55553401031287   -0.75943627616814   -0.80744907034092
O          -6.10371744132642   -2.01795504082378   -0.86851481306180
C          -4.95586509644440   -2.06287620015915   -0.15687557427703
C          -4.23577131146414   -3.28593838236480   -0.04108160623398
S          -4.73376299080768   -4.76491099399960   -0.85499208859988
C          -3.27081499697979   -5.47043713110425   -0.13192091186178
N          -2.61979018416996   -4.61475504015539    0.61619089668436
N          -3.15565418553214   -3.42905234548863    0.66699821691195
N          -3.10484629451274   -6.78269676067608   -0.19945828090198
N          -1.95767731080992   -7.32971199004480   -0.23571632528596
C          -1.87323290731697   -8.65817022123243   -0.06938173611603
N          -2.87066464616829   -9.51704323207464    0.19813529353873
C          -0.63466425457947   -9.37972229159908   -0.14045345089065
C           0.69693907818147   -9.04910405739741   -0.37749262524454
C           1.62212719818810  -10.06809253069168   -0.34968825930292
C           1.25219697205937  -11.39541440984868   -0.09040854715677
C          -0.05621134203681  -11.74948590072127    0.14839815746725
C          -0.99283548532509  -10.72076812455728    0.12060966380597
N          -2.34680416933608  -10.71170330975206    0.30588726185879
N          -3.12290770107910  -11.79700861529955    0.64720345957683
H          -3.82663851064481   -0.56953215220546    0.96488391913275
H          -5.83609024536436    1.06592043710700    0.14664633221321
H          -7.47003710141510   -0.54214017177294   -1.32316451943048
H           0.97539485674261   -8.02636877745966   -0.57202923447743
H           2.66368571786446   -9.84751569064234   -0.52837192620957
H           2.01774461469122  -12.15630590784531   -0.07555087079376
H          -0.34490501299734  -12.76692076240320    0.35942329052869
H          -3.12655567941811  -12.50149042198725   -0.08780397641284
H          -4.06766084928772  -11.46660675974678    0.82499649453101
