31
         -64.133144366699          0.000904694725
N           1.56610924449072    0.34262773188562    0.08093153699912
C           2.90580201472829    0.26787313925416    0.00209046787427
S           3.93564997154419    1.69088690613381    0.03844705394512
C           5.28462183756518    0.51086684105781    0.00784952342122
N           4.86295780571928   -0.71325134199886   -0.04652593234439
N           3.56266955672658   -0.85587147487560   -0.06354649068617
N           6.51658574170014    1.01044881137926   -0.09948357546444
N           7.51455602012191    0.25631764777903    0.15787492362932
C           8.74997216775565    0.77639001942392    0.02269732579626
N           9.07561685189975    2.06568235864612   -0.01110320989954
C           9.94102896610763   -0.02459052621333    0.02092595188017
C          10.33033069611465   -1.36154453656538    0.03462374447294
N          11.60357076565641   -1.67930399389067    0.01819910338799
C          12.52141381480676   -0.69206274854193   -0.02056188968399
N          13.80698817966524   -1.08052542443085   -0.04483312758807
H          14.52796995057684   -0.38336769568564   -0.03447234485085
H          14.02085772073866   -2.05865875789203    0.00437124255309
N          12.28226704132963    0.62093019937913   -0.04498738041861
C          10.99482141163829    0.91723063404410   -0.02458703035894
N          10.41085919102890    2.15607795993342   -0.02788143924538
C          11.02227570711973    3.38968754284006   -0.00844611799696
C          10.46165081519718    4.63966777963572   -0.00400979634952
C          11.55522348124354    5.53511482467473    0.01727361659189
C          12.67847808652173    4.76565435788368    0.02308693005777
O          12.36171485007895    3.45657886331678    0.00813746136878
H           1.10935888444630    1.22071991756384   -0.08652370100355
H           1.05073391410453   -0.50788814263879   -0.07022411654312
H           9.61980475997643   -2.17568358372839    0.06413444652338
H           9.41619573363820    4.86242785796417   -0.01454812299296
H          11.50710392705000    6.60429706690148    0.02640201845379
H          13.72069089070943    5.01327776676462    0.03620892847120
