29
         -60.326701593283          0.000872443826
C          -0.86098466659890   -0.35352251432092   -0.58433862951923
C          -0.12393183847240    0.70376460112859   -0.12925706625064
C           0.76945530382669    0.14433322666125    0.81036277845987
N           0.59283734438786   -1.14955319657838    0.91902592048055
N          -0.39788237385127   -1.45493276870787    0.07339947471693
C          -0.84457621911919   -2.73449752556685   -0.06748340103680
S          -0.19902416838472   -4.04283141552245    0.89676151707435
C          -1.38379699122975   -5.04278715099414    0.01640676408424
N          -2.06876342546602   -4.35891634655825   -0.86280459709053
N          -1.76058662031757   -3.09029778946351   -0.91475627025025
N          -1.29692124806663   -6.36149225582285    0.12327172244247
N          -2.29140460593855   -7.13569248857069    0.06469555069074
C          -2.07247926166717   -8.45857551270679   -0.09637745240683
N          -0.96715097473075   -9.02329135691602   -0.58122046536285
C          -3.07135595315182   -9.46294745810703    0.12826184062300
C          -4.37909151717618   -9.59693223338200    0.59234391661183
N          -4.94378622376688  -10.77906321507838    0.63827448662629
C          -4.24142299246862  -11.85985202027898    0.23722778296208
N          -4.88185447902847  -13.03652604152201    0.31410408224020
H          -4.41310672179588  -13.87427686714410    0.02386301700037
H          -5.82655920364731  -13.05425750623816    0.65061231145596
N          -2.98699992799777  -11.87179408880900   -0.22079181088772
C          -2.43736250901380  -10.66888286549730   -0.26164225267866
N          -1.19217017268390  -10.32944395756777   -0.68040177453466
H          -0.48339202979190  -10.93738406225722   -1.06177988005109
H          -1.65465573230798   -0.43747196663307   -1.29691449276046
H          -0.20239943319763    1.73106025979781   -0.41851376909558
H           1.52003750111478    0.63865029877222    1.39401537339508
H          -4.97317085946453   -8.75557578211911    0.92080532306195
