36
         -69.642749923387          0.000551079846
C          -4.70533604409850   -0.99484286308477    0.05510578208914
C          -5.80659269537782   -0.18623947725820    0.06206779324540
C          -6.90623826639082   -1.07286872011863    0.06746233787061
N          -6.50803494444210   -2.32062269416057    0.06418382650126
N          -5.17078196862976   -2.27734438431727    0.05665363332329
C          -4.42123656203399   -3.41485412452110    0.05106172028992
S          -5.14616985492813   -4.99521809723542    0.05763405187030
C          -3.45921781139788   -5.58046378910512    0.04531001679324
N          -2.59593154669572   -4.60921117552480    0.03702474791472
N          -3.11844439527394   -3.41312196648322    0.03999708611951
N          -3.28830980264011   -6.90830089177114    0.03933834026821
N          -2.07873091949877   -7.34851239672333    0.04253189401013
C          -1.92005498268283   -8.68168917057532    0.03383846153083
N          -2.87705051667380   -9.61212411613387    0.03431554094866
C          -0.63211609569618   -9.32215077581593    0.02715581284097
C           0.68260721356295   -8.87003040988329    0.02354050289210
C           1.68221122660194   -9.81758569155566    0.01751458030342
C           1.38990444169476  -11.18613116390951    0.01518526007851
C           0.09380721281989  -11.65531843885229    0.01823291353870
C          -0.91973336579019  -10.70393512736028    0.02376884983143
N          -2.29424692736673  -10.80371331515819    0.02885024345622
C          -3.10587055588142  -11.91656212091177    0.03062948939133
C          -2.90074974839970  -13.27902118788404    0.01835277793293
N          -4.09620084310431  -13.91197854381402    0.02703324022308
C          -5.00987553903062  -12.98058646777395    0.04384579077440
N          -4.46381082065518  -11.74419576763521    0.04675570916609
H          -4.90341775401898  -10.83620162114088    0.05690522268019
H          -3.65407028602488   -0.79661450845680    0.04938787243793
H          -5.83587691825757    0.88339101730587    0.06318773578271
H          -7.95181116194817   -0.83868752261994    0.07341470322497
H           0.88989899629498   -7.81244739898429    0.02576301622831
H           2.71574027881988   -9.50624617792272    0.01480189209315
H           2.20462238119553  -11.89432876562217    0.01094841893580
H          -0.11683557915510  -12.71108023366338    0.01670256260161
H          -1.99027691655970  -13.83940286139524    0.00331821018676
H          -6.06515892833698  -13.16154904993354    0.05431996262414
