20
         -51.955721622714          0.000657411106
F           1.43053398679869   -0.00146049871804    0.02825268176275
C           2.73582357317021   -0.04840453956596    0.02411014154781
S           3.69372118562122    1.40593866515668    0.02294233296398
C           5.06842463370103    0.27251286147322    0.01737208639502
N           4.69457372231555   -0.96898122423855    0.01641069707005
N           3.40298041845903   -1.15166937865590    0.02002085724059
N           6.29608348751657    0.82067361526750    0.01236278198870
N           7.30320424973308    0.03183428211331    0.01235323037788
C           8.50517384542690    0.64721680494274    0.00594764511246
N           9.61532411589088   -0.08351404938817    0.00287783158273
C           8.85690998426387    2.04836458711260    0.00231377119471
C           8.26346094730244    3.31075083537177    0.00306423795581
N           9.01955516142944    4.38859226959099   -0.00161130381944
C          10.34262664171144    4.25709236119890   -0.00674088574081
N          11.03648190076255    3.13564625818769   -0.00771146821476
C          10.27562995568256    2.05405335958584   -0.00317900385454
N          10.62153293518704    0.74264634159354   -0.00244770082872
F          11.87747908240178    0.24366523488621   -0.00700366967275
H           7.19176942312690    3.45135556993032    0.00736506578974
H          10.91571074949883    5.17342664415531   -0.01042932885121
