25
         -54.958848590348          0.000781074426
N           1.54296231382690    0.57378730184441    0.42230214460068
C           2.66950467645995    0.46270787815372    0.23433427316827
C           4.04761925434801    0.34251777788709    0.04051677515045
S           5.20143453691810    1.00717171528042    1.20762781435221
C           6.43586155276995    0.31917041230319    0.13160597962931
N           5.91399981040511   -0.26224887998982   -0.93086694700280
N           4.62031765618307   -0.23674769545003   -0.96558337500814
N           7.69014485162150    0.66724432984962    0.30544422899011
N           8.71214536645543   -0.06895971152605    0.24099548619349
C           9.92205117493902    0.49892057855435    0.16161030411595
N          10.19096410780763    1.80784610248526   -0.00377995750054
C          11.15197737547124   -0.23281582790462    0.19798147772663
C          11.63653064819638   -1.53600883561848    0.34050695024527
N          12.92485746966980   -1.76345287171700    0.32169734859649
C          13.78338999813223   -0.73062690731907    0.16959342001275
N          15.08704373328424   -1.04620643608936    0.18677667506975
H          15.77056825584386   -0.33566924720463    0.00091866257477
H          15.34512984568513   -2.01521382968066    0.22445228117529
N          13.45767651225690    0.55576306979680    0.02625803462597
C          12.14741448922534    0.75671883404610    0.03585163509477
N          11.49015942501897    1.94425476964716   -0.08111348909659
N          12.06816914027683    3.15299676629050   -0.35568694264951
H          10.98728972937901   -2.39040877991835    0.46855363939197
H          12.99389030846044    3.21074410734466    0.05504387354886
H          11.45046776736548    3.91297537893396   -0.09150029300597
