23
         -51.257070576559          0.000619593806
C          -1.26188114110752   -0.25485019465247    0.00747856464164
C          -0.37207096446822    0.83442262051121    0.00151194059367
C           0.88369290357103    0.29560484692419   -0.00147835667444
O           0.83231223617744   -1.03944787476342    0.00238655047914
C          -0.47385753839862   -1.38688805938016    0.00780019897149
C          -0.84997981679195   -2.75931535482136    0.01289091752360
S           0.30106270691612   -4.06956104391489    0.01399999598819
C          -1.12924161776791   -5.12392133322813    0.02201269253319
N          -2.24234434900111   -4.44740361653803    0.02224928605729
N          -2.09760109041703   -3.15904769613251    0.01721547185170
N          -0.90706701781453   -6.44743478012999    0.02369392827763
N          -1.92709618999900   -7.21651580280403    0.03627922694843
C          -1.69902152781615   -8.54905071418163    0.03633171525807
C          -2.74573042411044   -9.50841535975909    0.04746933545279
C          -2.11398145342861  -10.72606536877578    0.04514628661316
N          -0.50439557148126   -9.17287435150767    0.02776462586488
N          -0.80210017895888  -10.42447949177990    0.03344553813910
F           0.19011766371816  -11.35932949165236    0.02845260598608
H          -2.33130038134034   -0.23940815982588    0.01120557791361
H          -0.62467591253268    1.87456521582068   -0.00034781389122
H           1.85534758396290    0.74919125104953   -0.00610464094114
H          -3.79426874825938   -9.30018552531388    0.05553156000174
H          -2.46800917065200  -11.73543971514442    0.05071479241140
