22
         -47.030672662535          0.000801954143
H           1.00962770997915   -0.19194122148737    0.33477327824668
C           2.04866126170577   -0.00094159314884    0.16110393424797
S           3.02887512270540    0.86474673002751    1.30917272312701
C           4.35579033458531    0.55656597856012    0.16708081250922
N           3.95350397622145   -0.08061795623590   -0.90164478713425
N           2.67770323461948   -0.37404541387196   -0.89304504483469
N           5.50277032064177    1.19622972955957    0.34315326333786
N           6.63946326530729    0.70175800032695    0.12448932544458
C           7.70900372161044    1.52570432912671    0.07210553882238
N           7.68156789230870    2.83759357068175   -0.15948905673072
C           9.06788708939800    1.07299476321937    0.13790724731462
C           9.80769534600206   -0.09201197076516    0.33732331342128
N          11.11753812821946   -0.05160440996116    0.31803294187307
C          11.73696678965318    1.12970725823101    0.11009603128383
N          13.07845611082449    1.09722888882002    0.11651022751400
H          13.59288896811419    1.93787638441166   -0.06986950728266
H          13.54062621077970    0.21351545767363    0.22418146562587
N          11.15137427746775    2.31327228146344   -0.08966227424958
C           9.82999479087213    2.24973155894121   -0.06884638337574
N           8.93902288411270    3.25765548913322   -0.24647375626744
H           9.13538267556445    4.22402605539963   -0.45784761643561
H           9.34876988930702   -1.05614391010652    0.50625832354193
