22
         -51.193247899516          0.000982569519
H           1.01740258541764   -0.13106246413726    0.09474823911543
C           2.06049024059962    0.06601354121260   -0.04770731657830
S           2.98625371533076    0.99148298014452    1.09436169170824
C           4.35789645687430    0.64888785462015    0.01970747328225
N           4.00345252309492   -0.04080450781194   -1.03360765479540
N           2.73295535454182   -0.34752065554332   -1.06076814448933
N           5.49683164890800    1.30013678396658    0.21728461322736
N           6.63353445568035    0.80054416370203   -0.00062794816342
C           7.70883857302498    1.61032230614611   -0.04324342833939
N           7.70140270022858    2.93002054852462   -0.25134078957596
C           9.06214478983424    1.14140064485380    0.01064253347721
C           9.78788900648009   -0.03957469525099    0.18602865342634
N          11.09578810953672   -0.01997845447879    0.16172678444545
C          11.73918959644196    1.15326848426492   -0.02902654816802
N          13.07615237457085    1.09830045376799   -0.03856990401563
H          13.60249199886651    1.93996549517550   -0.18395631744574
H          13.52834140647863    0.21040320661279    0.08024430803378
N          11.17058946527661    2.34970036742271   -0.20317056665367
C           9.85239430315445    2.30421718682902   -0.17901840822814
N           8.95217333232721    3.30373071525068   -0.32145913097245
F           9.23489197116714    4.60182774353609   -0.61401816594535
H           9.31146539216493   -0.99727169880898    0.34039002665256
