30
         -64.354705034188          0.000312721076
C          -0.87259361167821    1.36258994482688    0.29196201331877
C           0.42405498861351    1.33033739384501    0.01056132307530
S           1.34476865474466   -0.10815778078134   -0.40670776691937
C           0.04202520872208   -1.28045636909531   -0.31775797420004
C          -1.22225334118198   -1.01052603017336   -0.00838990763074
N          -1.72449600610845    0.25276375468521    0.29834280701165
C          -3.02364590099051    0.43520535008536    0.60905823418933
S          -4.22076812093494   -0.84844590070629    0.63780734795419
C          -5.35891995123667    0.44704821503566    1.12770485923314
N          -4.77513095053822    1.60932258834767    1.20102760861841
N          -3.51697513866311    1.62010872070061    0.90906210724009
N          -6.63779687353554    0.11046126378494    1.23704826947900
N          -7.46013339446304    0.94236619797633    1.74732624781535
C          -8.74797190914816    0.58420231473107    1.89477068097941
N          -9.20342139074027   -0.63585536514626    2.11668240098156
C          -9.81898560550593    1.54381103438353    2.02171609737762
C         -10.03990529718349    2.91199569017157    1.93057139135023
N         -11.25287949896924    3.39444533693970    2.13203198896128
C         -12.24030014777675    2.55371382929849    2.41041293086231
N         -12.17185502727464    1.23921592870793    2.52350893055634
C         -10.95562031907587    0.76111347890049    2.32653651453105
N         -10.52903391784733   -0.54415362066505    2.38851951776980
C         -11.26280011012238   -1.60785014221960    2.69463090543449
N         -11.90238200651259   -2.52090574704086    2.95024213203839
H          -1.37504219061696    2.28490055877519    0.54115825288877
H           1.01795840965725    2.22698746639412    0.02122668934085
H           0.35563347014822   -2.28468017974900   -0.54178536418226
H          -1.95670580399301   -1.80194563087253    0.02287996559662
H          -9.25377267893924    3.61925275558460    1.70605369440299
H         -13.21600153884747    2.99310494327567    2.56427810192568
