32
         -63.351420338576          0.000572523989
C          -1.03919025023912    1.18966802089656   -0.48985012633091
C           0.25193752778684    1.15341859864375   -0.78999900253651
S           1.37894480884097   -0.11448451157508   -0.30940972917421
C           0.22860601570433   -1.18796403310935    0.48042288554745
C          -1.06095389043353   -0.93173990544028    0.66703245740813
N          -1.72131139909409    0.22488243878711    0.25890148684467
C          -3.02592067100046    0.43292480563446    0.54999277917714
S          -3.98686675530297   -0.65711208866808    1.54401413602659
C          -5.30513820371942    0.53484270845950    1.28340087915291
N          -4.92676855213248    1.52525470938530    0.53034276397397
N          -3.69358181412507    1.47044925442222    0.11488307570628
N          -6.51417955900194    0.18757278881212    1.69443372731111
N          -7.41035381206301    1.06288665770597    1.93237009190659
C          -8.66832067829097    0.61847826819370    2.15670043949049
C          -9.72664290109508    1.48331519809740    2.56169659779219
C         -10.81992922735491    0.67523928944932    2.65662502859688
N          -9.12364317464248   -0.63158668707102    2.01629513032641
N         -10.40904852963987   -0.58378785151055    2.31745787007421
C         -11.18509802691115   -1.72114285334765    2.27679359578908
C         -10.85174780965145   -3.00932341840403    1.95949375632119
C         -12.04949778897037   -3.74929749134781    2.09731158738141
C         -13.00599412755985   -2.86302433277671    2.48391773046503
O         -12.48977775987509   -1.62171056291377    2.59660939887650
H          -1.67433626582089    1.99907054764254   -0.81618177963876
H           0.71287203109952    1.92928075704641   -1.37433603968795
H           0.66820687458262   -2.11080431283395    0.81399862599183
H          -1.69415309014058   -1.65261553723287    1.16347467648918
H          -9.64894935422888    2.53312867172636    2.74704979816047
H         -11.83788339544454    0.86873835159790    2.92593859799627
H          -9.88278134647987   -3.35664367530708    1.67158720339184
H         -12.17598712472503   -4.79881325458484    1.93087895022496
H         -14.04824175007604   -2.97629055038321    2.70384340695779
