25
         -50.143391326527          0.000960622412
C          -1.05965506507730   -0.35750477223786    0.52142177306707
C          -0.28702521832128    0.72992587395844    0.21890636485391
C           0.79645135289900    0.20897658051388   -0.51768677476614
N           0.69411801057005   -1.09117571113919   -0.65466809850659
N          -0.43307168531140   -1.43662158334688   -0.02468067572347
C          -0.85071279534537   -2.73424452788152    0.03427373967348
S           0.04242123363926   -4.02041443003442   -0.75357170181889
C          -1.25796387887959   -5.06704963763746   -0.12844759096024
N          -2.14412410201213   -4.41142296463541    0.57279580196931
N          -1.90840382940269   -3.12568247216110    0.66786555177525
N          -1.08928876742513   -6.38065482475385   -0.18323586735464
N          -2.01374160728359   -7.21266075185529   -0.39730033256303
C          -1.74976052624749   -8.52271053948821   -0.20299121723596
C          -2.67510634014774   -9.55559172022766   -0.49644767974530
C          -2.03716509018838  -10.71199379039560   -0.13136898055622
N          -0.61904495864289   -9.05573858210638    0.30217286492585
N          -0.81878773038126  -10.34170980679938    0.33510523326299
N           0.12178093303413  -11.18363405071689    0.87930089950965
H          -1.97620303117482   -0.47479421108415    1.06047270369769
H          -0.46135723089714    1.75194871429078    0.48301744518852
H           1.62918754037426    0.73331889948302   -0.94216625899499
H          -3.65341730663787   -9.43314371812536   -0.90936727226366
H          -2.33614362849191  -11.73905978903618   -0.16071632720109
H           0.91085597705305  -10.62394749265181    1.19043908862912
H           0.42179774429794  -11.89872469193142    0.22163731113853
