23
         -46.747483059370          0.000940961397
C           1.45084959054501    0.03204266459393    0.04453133735896
C           2.92846580257917    0.00652336681987    0.04256940935634
S           3.90846720241020    1.44902149778170    0.04441608983025
C           5.29164478323026    0.33595223571905    0.04057713559551
N           4.91892545223436   -0.90886613289289    0.03844750584918
N           3.62752290698988   -1.08592910907058    0.03951230175689
N           6.51788995063413    0.88540198725192    0.04035546431017
N           7.51288530767531    0.08349295203068    0.03780350318832
C           8.74942352338836    0.63153244610765    0.03789189313881
N           9.07511075414383    1.92204763738755    0.04121104332813
C           9.94554938244362   -0.16444665644569    0.03464523208754
C          10.34895719353627   -1.49663185126849    0.03068202228762
N          11.63443273078608   -1.78894765665868    0.02862752614066
C          12.52244261284774   -0.79905494963516    0.03034210053391
N          12.28623481856642    0.49824823403815    0.03430242804192
C          10.99221609895390    0.79200853464866    0.03631847177831
N          10.39801056604618    2.01186518142651    0.04029295078770
H          10.84516891902103    2.91678382332023    0.04250890656177
H           1.08285291117437    1.05358965770517    0.04295853227041
H           1.07698418837890   -0.48874297696050    0.92504465161220
H           1.07460828730171   -0.49264209944420   -0.83260671232156
H           9.64966214185963   -2.32089980010518    0.02892221016918
H          13.56283487525367   -1.09408898634972    0.02916599633778
