29
         -56.345552800853          0.000797105669
C           0.88865796687613   -0.89946464504141    0.01208628828790
N           0.75920763586936    0.44156165910424    0.00927250331744
C          -0.52748119829761    0.68285020834045    0.00743743893765
N          -1.25371812324073   -0.45190219443333    0.00901065901609
H          -2.25427524382551   -0.56923665027192    0.00822688315385
C          -0.36025983722810   -1.49496767255046    0.01201026871111
C          -0.78370231099650   -2.85223020680703    0.01448540456609
S           0.30780893953787   -4.20984265534278    0.01698201535731
C          -1.17247163401914   -5.20519905151093    0.01794618743482
N          -2.25167993228622   -4.48161530557230    0.01723389565923
N          -2.04732950491335   -3.19596976893363    0.01542992350216
N          -0.99719412709032   -6.53374477926476    0.02376105953245
N          -2.04776516687422   -7.26918420775581    0.01634160403696
C          -1.86045224936444   -8.60408049883925    0.02410430785357
N          -0.69993443888095   -9.26465639465120    0.03023059199998
C          -2.95103819809439   -9.54336106727865    0.02352766363665
C          -4.33935875633861   -9.45364110645908    0.01912642473172
C          -5.05437696974640  -10.63109255160207    0.02066629472709
C          -4.41811316989896  -11.87907407890514    0.02649915925105
C          -3.04553857191739  -11.99326786669021    0.03115098087366
C          -2.31985662597619  -10.80680826890181    0.02975714011329
N          -0.97800827254351  -10.55385401720047    0.03309307002459
H          -0.22378541819118  -11.22434472933472    0.03639119183502
H           1.85027436892879   -1.37160399084398    0.01414090183431
H          -0.95994573686685    1.66337184797498    0.00499906508960
H          -4.82110826944403   -8.48952556552510    0.01463825919307
H          -6.13352750093553  -10.60047148024408    0.01727869629350
H          -5.02318938458362  -12.77326328327829    0.02740143133227
H          -2.55443826965840  -12.95407167818126    0.03573068969754
