27
         -53.507501103364          0.000962634797
C           1.31047931430365   -0.27128932147877    0.12281337074464
O           2.72220520102426   -0.26797119206604   -0.04636353357749
C           3.28965617350838   -1.45313705263591   -0.12121066282763
S           5.01919705917776   -1.57373583515393   -0.32984738911843
C           4.72397563568491   -3.34359677405462   -0.30265973302439
N           3.47360997820427   -3.63027683793988   -0.15460393855537
N           2.67476529347067   -2.59453737730725   -0.05399663088815
N           5.80568479290997   -4.12490525805836   -0.44333399349317
N           5.64439624957273   -5.39579918455114   -0.41700684536970
C           6.78262131913674   -6.11341383296934   -0.57203231790666
C           8.13585389251581   -5.68349678258739   -0.75813085402638
C           8.85125512573572   -6.83645495861532   -0.85385614793400
N           6.72375717189732   -7.44629084413312   -0.56159102211943
N           7.96134788638630   -7.86929422241619   -0.73045944013808
C           8.24634101791329   -9.21694576711923   -0.76788034061893
C           7.35512773867004  -10.24552215511886   -0.64445832042071
C           7.98420803838757  -11.50360012043428   -0.72953898954320
C           9.32661701872948  -11.41499670007130   -0.91395423319538
S           9.87085984690321   -9.78558261806076   -0.99034701537277
H           1.01671998896844    0.77452863291522    0.17483268467678
H           1.03841339081506   -0.79474608286557    1.04093286845552
H           0.82738606936347   -0.76584502313391   -0.72170074864995
H           8.47538743381689   -4.67074037907317   -0.80597900028188
H           9.89712492662412   -7.02189536670107   -0.99647888827156
H           6.30390806687910  -10.08284874703600   -0.50035631584142
H           7.45725565529577  -12.43734911159436   -0.65625435692750
H          10.04282571410504  -12.20599708773941   -1.01147820577474
