38
         -72.606760113657          0.000821652699
C          -1.89121659968754    4.62452500369006    0.43944751304134
C          -0.82324389163776    5.36471113738866    0.17393295558183
S          -0.84862666965363    7.04476422065356   -0.35741043444375
C          -2.58951637779415    7.29503716837237   -0.32293813474796
C          -3.49537297409544    6.37348418707349   -0.01568253937794
N          -3.21832262515835    5.05526885898533    0.33927753273338
C          -4.20773618014665    4.17325847121918    0.60760237945032
S          -5.91897449656372    4.55374770267904    0.46806610817627
C          -6.17037929292404    2.84792142345263    0.97965404104539
N          -5.04527382368464    2.23443821187935    1.19444255847192
N          -3.97341731993968    2.94740111708783    1.00562098888576
N          -7.41908828210979    2.47950429059233    1.22385032323542
N          -7.70332486671373    1.22829503283354    1.31627204667461
C          -8.94790192504934    0.91397071278421    1.71669005298449
N          -9.92995904269218    1.75142157817206    2.04913812053202
C          -9.40645955182506   -0.44202004468187    1.85579858747008
C          -8.82990653628267   -1.69217531186272    1.66158796320225
C          -9.60780828390656   -2.80016332514038    1.91382659277955
C         -10.93143042588949   -2.67670310805114    2.35105111184982
C         -11.52202146690863   -1.44757534001100    2.55052519591478
C         -10.74212583520615   -0.32474145726472    2.29725746710028
N         -10.99386032055428    1.02530613195769    2.38918898461024
C         -12.14117926375960    1.69691304383162    2.75001509508949
C         -13.40448666699562    1.32947806959039    3.15651565679732
N         -14.14548611609817    2.44084925332173    3.37824886963380
C         -13.37324426061619    3.45935778866453    3.11921514683523
N         -12.13870635704278    3.06547817442816    2.73177342369064
H         -11.33149103595541    3.60996669817991    2.46839160444459
H          -1.80222278539022    3.59842467501087    0.76244844266878
H           0.17107555876713    4.96739505644201    0.27343636659981
H          -2.87991215521962    8.29793176159010   -0.57995385053258
H          -4.54696746342734    6.62059973662669   -0.02061843925703
H          -7.80837409942458   -1.76942015803085    1.32660305490305
H          -9.19524831762326   -3.78799223851261    1.77477813774147
H         -11.50532361266976   -3.57180200822068    2.53845540150011
H         -12.54101066950986   -1.36735370349663    2.88903239824817
H         -13.82578813781664    0.35787128031930    3.30389680990301
H         -13.66813782879180    4.48563590844653    3.19924246656329
