23
         -50.908261824932          0.000247924987
C           1.42061549670592   -0.00475362906613    0.01371763570680
C           2.89718299618787   -0.03716467487467    0.01128053936169
S           3.88286635580171    1.40042369641634    0.01217516709438
C           5.26231309879917    0.28025021344638    0.00882324270752
N           4.88364239973008   -0.96213573839268    0.00667273741961
N           3.59362810421116   -1.13225812750427    0.00790465791590
N           6.48851081123282    0.82828454687860    0.00419039751926
N           7.49467112026200    0.03711358788678    0.00909563176073
C           8.69822639707329    0.65386125762181    0.00154910321977
N           9.80717237430015   -0.07538301237388    0.00103566389888
C           9.04818946734184    2.05543547776859   -0.00526397943141
C           8.45376764329057    3.31633668932026   -0.00770776691352
N           9.20745248856202    4.39675249358355   -0.01461279041448
C          10.53066618504990    4.26612714777726   -0.01871604442571
N          11.22691891980531    3.14657793168554   -0.01650803776510
C          10.46797999431939    2.06253437961811   -0.00988043382205
N          10.81519387868372    0.75426112402723   -0.00573382883857
F          12.07329605801076    0.25453992881357   -0.00858154403827
H           1.05612336718485    1.01806642601889    0.01340566934192
H           1.04509195074591   -0.52601033768263    0.89334938208003
H           1.04232014922453   -0.52768388760538   -0.86370026810607
H           7.38177149734122    3.45524707370149   -0.00421931852106
H          11.10247924613583    5.18339743293524   -0.02426581575025
