32
         -63.011647065368          0.000377613210
C          -0.89472132037774    1.34971717607329    0.03893697157193
C           0.40527708909079    1.29417269388621   -0.21901616852688
S           1.36627217938915   -0.17806022585632   -0.32385868623096
C           0.08033571747153   -1.34175636854609   -0.03594095314844
C          -1.19095300247775   -1.04331938374874    0.20798055840169
N          -1.71996343436315    0.24424371232225    0.27187445547040
C          -3.02298121662960    0.45656366100798    0.55775109315198
S          -4.16854312696690   -0.82631392867614    0.91563463235821
C          -5.34881784454741    0.51138778904446    1.12713528656326
N          -4.81049743463166    1.67387407518626    0.90935389529229
N          -3.55284896871122    1.65779117018921    0.58891645890972
N          -6.60961445883571    0.15776114475347    1.34265369690045
N          -7.44960998844489    1.04301527766417    1.73432813794682
C          -8.72929296884739    0.65121120244449    1.89774477232064
N          -9.19715565696875   -0.59509538245162    1.95225273613721
C          -9.80439432443993    1.57393502932903    2.13273984411306
C         -10.05406421418870    2.93876747514362    2.21341419677941
N         -11.27766379308192    3.36879924197920    2.45830913840528
C         -12.25291033233791    2.47852426045371    2.61747090993968
N         -12.16594850688611    1.16486251585906    2.56384265781943
C         -10.93214013660201    0.73293442962278    2.31957155890002
N         -10.49919503209521   -0.54509562731000    2.20979490282441
C         -11.28206750186309   -1.73483820965715    2.37197273065228
H          -1.42192733038591    2.29027519791697    0.08943064636821
H           0.97944607898809    2.18751714909162   -0.38838768567863
H           0.41435981818831   -2.36331572506366   -0.07356313788802
H          -1.91320320797176   -1.82930034288642    0.37379450235685
H          -9.28141410811300    3.68445194712454    2.08759297371008
H         -13.23672836216607    2.88330011881514    2.81333713484171
H         -12.30211858221791   -1.43291402969937    2.60019039520524
H         -10.87645913131816   -2.33906174357398    3.18453818795193
H         -11.26015689765822   -2.32386430043803    1.45411415658082
