38
         -72.950747482355          0.000642498735
C          -1.87858413198941    4.80331075545471    0.87205176784269
C          -0.80867945953472    5.54611658857421    0.62261006215922
S          -0.77389224887071    6.97532036883136   -0.40955486273171
C          -2.48802331361533    7.04546342514224   -0.80346913576437
C          -3.40170251974436    6.15926637523658   -0.42468921879223
N          -3.15826413773063    5.03234098854770    0.35628748548406
C          -4.14344796343992    4.15319665192216    0.65240068985393
S          -5.78458653220160    4.28719564322128    0.02889891822377
C          -6.08105120832625    2.77377348739095    0.95350775207570
N          -5.01631158715879    2.37151464646897    1.58599780346026
N          -3.96350430048853    3.12372028418870    1.43969220800272
N          -7.33634403926498    2.37850407678233    1.05336391048070
N          -7.64152191329426    1.16862510837956    1.33131339433823
C          -8.91686040995247    0.90866431693139    1.66751696036992
N          -9.84313707365559    1.79324027011124    2.03448738374351
C          -9.45173665574517   -0.42450088255681    1.76442236142814
C          -8.96017681562616   -1.70099339148620    1.51781089745717
C          -9.81067670714367   -2.76473332220482    1.72793225513272
C         -11.12397758245718   -2.57285772686192    2.16953639620135
C         -11.63297447761322   -1.31584745870743    2.41890075360917
C         -10.77707766634565   -0.24119142438734    2.20984224828243
N         -10.94320795231291    1.12009266036321    2.36172397582214
C         -12.04729980235222    1.81266733514857    2.79883078669805
C         -12.21571239504325    3.16272227176826    2.95979549475093
C         -13.54116209157064    3.32168117390918    3.42484828371690
C         -14.07133400114458    2.07223018208663    3.50905643531077
O         -13.16729689416075    1.14297874265356    3.12935804393977
H          -1.83088695297919    3.93774500737927    1.51519755312162
H           0.14774970471627    5.31479497782386    1.05574720440418
H          -2.75156479503680    7.90034552663595   -1.40030871930881
H          -4.43512760500888    6.28317895078036   -0.71410151577021
H          -7.94552057485630   -1.83544465645553    1.17979330675393
H          -9.46267077926756   -3.77129503286840    1.55067528181624
H         -11.75610270894586   -3.43533476775001    2.31945987940242
H         -12.64550962403759   -1.17318597001687    2.75825642658958
H         -11.48160306705075    3.91506413411704    2.76643710687598
H         -14.02986194090450    4.24363421113335    3.66253040570916
H         -15.03540777584350    1.71475647231280    3.80920001931004
