24
         -46.475744265474          0.000503928246
N           1.41157224350932    0.10818338550333    0.03387118220929
C           2.75342045122275    0.07055956022309   -0.03619717119477
S           3.74410668147774    1.51456370952741   -0.01271099059993
C           5.12619787849224    0.36725754808905   -0.05531991758699
N           4.73171440026869   -0.86401652304192   -0.08545314707662
N           3.43686513267589   -1.04131531216877   -0.07845803225378
N           6.34611341039655    0.91373583860236   -0.06802673042682
N           7.35456472782534    0.12134394351690   -0.06226286396085
C           8.58002341426967    0.68714258566165   -0.08172127183227
N           8.88272148042474    1.98603024679495   -0.08846946132343
C           9.78985076425327   -0.09193868218301   -0.08825596610817
C          10.09601248005503   -1.44915259332899   -0.08713629682288
C          11.42709237188645   -1.80272835735270   -0.09527738996667
C          12.44426402079705   -0.83952170930698   -0.10452078207898
C          12.16604283988877    0.50930995733727   -0.10653005399610
C          10.82294246310903    0.87080648308769   -0.09872141863288
N          10.20113751583284    2.08577931815652   -0.09767503112662
H          10.62942314998802    2.99912813658534   -0.10014672036296
H           0.93232898289973    0.97484719014066   -0.13057240955435
H           0.91963654283708   -0.75484370445528   -0.12392371920776
H           9.30674547732231   -2.18311556538909   -0.07984382283592
H          11.70273243369202   -2.84663650795239   -0.09438498654938
H          13.47312174813278   -1.16730224327562   -0.11019567149366
H          12.94912938874273    1.25182329522850   -0.11374732721749
