23
         -46.726727097380          0.000641613291
C          -1.20561101541987   -0.29491427697630   -0.00634791800751
C          -0.37997158740986    0.79289546424883   -0.00604429208876
C           0.92661684817584    0.25537467563474    0.00549038635826
N           0.90032778976994   -1.05391722214368    0.01135618697014
N          -0.39428296464620   -1.39287014983996    0.00432149658442
C          -0.79931437489743   -2.69322631166420    0.00910691225555
S           0.32446355290301   -4.01950515625333    0.02269462764496
C          -1.14198811213880   -5.03687087860284    0.02102669876770
N          -2.23291134310374   -4.33670825384990    0.01140056652894
N          -2.05430164673211   -3.04479915032583    0.00482258586544
N          -0.95552290368057   -6.37005011868412    0.03377882502242
N          -1.99938831164454   -7.10849715651538    0.02880962536704
C          -1.76777505465737   -8.44451512543678    0.04485755187468
C          -0.54618983233177   -9.18657056145878    0.06026701923618
C          -0.94142293927970  -10.49311186546759    0.07115575213591
N          -2.81052388950791   -9.28093786882431    0.04681071275547
N          -2.30008726220789  -10.48895899167747    0.06282668379431
H          -2.91559959788854  -11.28901611143653    0.06772973067174
H          -2.26952573847101   -0.40579486409028   -0.01297276706513
H          -0.65608393103230    1.82666552005136   -0.01279317895863
H           1.86195989292412    0.77809400724139    0.00938861340158
H           0.44261623503154   -8.77991366749138    0.06172847489264
H          -0.38113381375484  -11.40618193643759    0.08394570599264
