29
         -56.692079330264          0.000397802869
H           1.26625304167494   -0.47111081972235    1.16322688373561
C           2.28030386751331   -0.22540343110798    0.92344198152976
S           3.20777379450899    0.88479130942809    1.89451341345873
C           4.52936987780166    0.52025348609688    0.75980100860849
N           4.16023984197012   -0.30087857649333   -0.18491579360292
N           2.91504796115693   -0.70026602175641   -0.08312065090931
N           5.61984326622450    1.27556838651602    0.80200541385953
N           6.79867967875729    0.84131628958076    0.63998373000162
C           7.76731729599939    1.76524725590066    0.47489250192356
N           9.03332219890410    1.36456653825506    0.41285261621616
C           7.69936101497752    3.19798368333720    0.29951587976649
C           6.68132365387043    4.14500054626285    0.26907587828583
C           7.03940141458758    5.46175096858326    0.07346788174605
C           8.37544778830695    5.83914566606188   -0.09247943649250
C           9.40087726926563    4.91703195436028   -0.06910519245116
C           9.04360783034563    3.58948786724070    0.13035126637953
N           9.79160130731042    2.43033117487597    0.21159077558373
C          11.15570877532114    2.27638833562595    0.10772231540496
C          11.90721433352361    1.13323747085239    0.18021969387087
C          13.24508099600423    1.55409954832214    0.00555135287381
C          13.20463563480629    2.90417018183733   -0.15777391693670
O          11.93405072547008    3.35495234351347   -0.09675771957142
H           5.65311466104422    3.84770804621711    0.39710858856281
H           6.27510844269129    6.22360531901087    0.04672582288281
H           8.60910169523613    6.88212858730855   -0.24421030867287
H          10.42863184032952    5.21201616894804   -0.20000381609313
H          11.53388966449010    0.14386673926275    0.33586860656516
H          14.11620927867100    0.93275522323851    0.00218372300322
H          13.97084284923634    3.63518575844263   -0.31910249952865
