31
         -60.134894249220          0.000833613224
C          -1.16840565908045   -0.37853566839807    0.01769979727296
C          -0.44089092345260    0.82079234064676    0.01445849622628
C           0.90707209113508    0.61800142230685    0.00995741495656
S           1.32042023980492   -1.04404379288673    0.00960285771346
C          -0.35732297275119   -1.48996542430127    0.01564106098353
C          -0.78276219366033   -2.84698110692494    0.01813157317750
S           0.30992001905303   -4.21413632414695    0.01655137396507
C          -1.16644912168195   -5.20408057565262    0.02225566950591
N          -2.24618466103089   -4.47938591317625    0.02423149518016
N          -2.04254491999112   -3.19692773856824    0.02200109869182
N          -1.00255691396797   -6.53570795528369    0.02256011572578
N          -2.06167676935936   -7.26226541225113    0.02975749228840
C          -1.86060383759514   -8.59854772883446    0.02919457671915
C          -2.91606035947996   -9.48740281535821    0.03540314704958
C          -0.64272659739321   -9.39262685033227    0.02346674408178
C           0.71132992335057   -9.08355197975719    0.01644791336405
C           1.61720044133174  -10.12763978187745    0.01286611989734
C           1.19923368140601  -11.45675802667265    0.01612771183674
C          -0.14384958116345  -11.78800117996366    0.02313592595999
C          -1.04580871585884  -10.73963373067647    0.02670335455769
N          -2.44275640700095  -10.77039265535226    0.03387049126910
C          -3.17621511435912  -11.87169428184234    0.03845450055194
N          -3.79834976490430  -12.83315731154485    0.04213187952405
H          -2.23978087174526   -0.45245139795422    0.02143838057994
H          -0.89376113012250    1.79572294588346    0.01542621702672
H           1.68752301723372    1.35301171189157    0.00680696227457
H          -3.96804430122043   -9.27707791231247    0.04058285905798
H           1.03251764846149   -8.05483456111212    0.01395474855999
H           2.67485453590122   -9.91185564149854    0.00742944213560
H           1.93684804671435  -12.24451608049435    0.01318235821637
H          -0.47702882857340  -12.81475657355526    0.02577822165012
