26
         -50.265190119139          0.000507653075
C          -1.28586406363561   -0.27693268578305    0.00670382273089
C          -0.39357123526015    0.81178318701579    0.00072151739600
C           0.86058259190133    0.27138811900073   -0.00265276559272
O           0.80640690609324   -1.06446884926988    0.00087661231678
C          -0.50002233112347   -1.40898876159944    0.00658462510066
C          -0.87645001252481   -2.78263145315899    0.01189602238832
S           0.28004849120242   -4.09115327954937    0.01619622295577
C          -1.14758246319161   -5.14995604844283    0.02366216426195
N          -2.26121968761573   -4.47785657053970    0.02093197744849
N          -2.12006265594655   -3.18529211900481    0.01453440591086
N          -0.91511772523281   -6.47284645135526    0.02681184853487
N          -1.93323778843742   -7.24774117949767    0.04356688517956
C          -1.69100849843967   -8.57720601270724    0.04564542950166
C          -2.72823594658404   -9.54988603634328    0.05776490997013
C          -2.07163691843454  -10.74940837221091    0.05960853317175
N          -0.49524271821351   -9.18953628800201    0.04082541610349
N          -0.74207692039463  -10.47401444996851    0.04971916650787
C           0.33342211882970  -11.42216260327147    0.05024969892326
H          -2.35523978191016   -0.25931020406374    0.01078433474238
H          -0.64484174668383    1.85233794255539   -0.00081234622251
H           1.83345136300443    0.72232470997558   -0.00752671925313
H          -3.77951946949328   -9.35665244232505    0.06328022684913
H          -2.43367153422588  -11.75783161568982    0.06748827739364
H           1.26685674485797  -10.86342381847079    0.03831926175756
H           0.27933604682153  -12.06240212246269   -0.83198835757573
H           0.29269723463711  -12.04629259483098    0.94472882949908
