30
         -60.405618293449          0.000884429875
C           1.36743064042452    0.03888289944767   -0.04489279406727
C           2.84517637016539    0.00100329100762   -0.04861690423608
S           3.83265224959845    1.43812548395215   -0.05882864943345
C           5.21245084677921    0.31455730809560   -0.05770487727428
N           4.83137918250950   -0.92578170554199   -0.04985582078850
N           3.53805439347562   -1.09437229553764   -0.04483892901715
N           6.43603206107014    0.86622376945118   -0.06263357494586
N           7.44710493661695    0.07567903537870   -0.06666111875194
C           8.64588328922816    0.69438793840819   -0.07105039370225
N           9.75698844880545   -0.03079365821942   -0.07334178074303
C           8.98704877473679    2.09835260658583   -0.07547984589708
C           8.38115075583774    3.35102966044673   -0.07656075755870
N           9.12657603642881    4.43949529711811   -0.08198218967136
C          10.44932031449625    4.31237639463971   -0.08653445588036
N          11.15161364713733    3.19613466276837   -0.08629876144089
C          10.40198494311361    2.10489885974785   -0.08072538522278
N          10.80065650192700    0.79141404867549   -0.07894674561595
C          12.08516659667385    0.29107343500588   -0.08223576121960
C          12.51432038057606   -1.01058702518915   -0.08038837646790
C          13.92480862598173   -0.93244659503005   -0.08572202808932
C          14.23370490931628    0.39501797437565   -0.09008590549956
O          13.11825887315634    1.14544159504233   -0.08814807484273
H           1.00887376359126    1.06379676284704   -0.04159248438849
H           0.99026779678665   -0.48273430800698    0.83362742368260
H           0.98584560477402   -0.47805286427209   -0.92435033052687
H           7.30807073251138    3.48143642363411   -0.07317150986595
H          11.01716602365696    5.23262850755744   -0.09077299573097
H          11.89303291052793   -1.88062487579452   -0.07596372452031
H          14.61123512071043   -1.75331734589426   -0.08608994685257
H          15.17003526938615    0.91560471930047   -0.09477330143143
