19
         -41.363727097234          0.000906818733
N           3.92059726331968   -5.18396009057036    0.27602992458589
C           4.64278085025232   -4.31244623481034    0.08813320830020
C           5.53849759302633   -3.25941343832957   -0.11282587976425
S           6.88302698182571   -2.97019480990241    1.00618536759592
C           7.23460612322087   -1.57789019994305   -0.03794164708579
N           6.40689046889389   -1.48555739114769   -1.05848475136995
N           5.49599096343347   -2.40680994091731   -1.08434634969088
N           8.38442662924517   -0.95403915481082    0.09841094931494
N           8.60426151142661    0.27760968383179    0.18131358371706
C           9.87144499453409    0.72422365031333    0.08424266931474
C          10.23308614050752    2.08715597594578    0.23158069378247
C          11.58699537070816    2.11330137207584    0.02489605561313
N          10.97076722138166   -0.01167074559135   -0.18560087715136
N          11.95944839931573    0.83054824412367   -0.21677365367616
N          13.21986398423522    0.41491801543531   -0.55736784771472
H           9.57355572669391    2.89943649386833    0.45059416752551
H          12.29861219606459    2.91246299166137    0.02771146362840
H          13.21329310965468   -0.59303488498238   -0.68158385547258
H          13.92218447225941    0.70527046374792    0.11643677854708
