32
         -63.522194323928          0.000586747400
C           1.37260289914312    0.34517688845494    0.14962834551565
C           2.84088520125576    0.30938587040831   -0.00995139931655
S           3.93803958876197    0.88543911991376    1.24115380246953
C           5.22896367834406    0.37515038777667    0.13303168559173
N           4.76317326563884   -0.09960684984231   -0.98990186530390
N           3.45438663437604   -0.12200032034304   -1.05535753958352
N           6.47583792442820    0.73416590451566    0.41525900085248
N           7.47916648434316    0.01696119042217    0.12577720574757
C           8.70612448478990    0.56352183329214    0.18575216485348
N           8.99697702875288    1.86518498023181    0.14292564885927
C           9.91953812572629   -0.20081380981616    0.18082800174157
C          10.35247530502801   -1.52575941746314    0.21145038074832
N          11.63377580819214   -1.80085433109901    0.19654050458906
C          12.52323618852643   -0.78653000928645    0.15718131956798
N          13.81765668254267   -1.13883752505654    0.15714820694905
H          14.52243717655174   -0.42817519466986    0.09061729069041
H          14.05470417850873   -2.11336462210326    0.14011703401948
N          12.24234977545287    0.51905366001632    0.12770412769104
C          10.94466873461770    0.77148092112358    0.14116989379122
N          10.32530891646757    1.99024314025376    0.10747669354215
C          10.91176661652227    3.23009968483874    0.02152989697185
C          12.22536684742739    3.63573993132531   -0.03920607496587
N          12.26859590340000    4.98649370391668   -0.10770042102566
C          11.03093405366748    5.39928471152939   -0.09020844247262
N          10.15582421560659    4.36844047750518   -0.01086813189640
H           9.14832616139281    4.37792145916205    0.01795161825398
H           1.01803578047260    1.37592745333967    0.14726929749660
H           1.08423051951153   -0.10906649279068    1.09617825193223
H           0.91136734455233   -0.19341419420061   -0.67391545059542
H           9.66949185885872   -2.36301567998250    0.24220348224046
H          13.10756370976114    3.03156380252891   -0.03554131121002
H          10.72900890737881    6.42586332609748   -0.13243321774553
