27
         -61.115749484761          0.000773682010
F           1.65169627370082   -0.07168361508240   -0.95893988650545
C           2.93974711668026   -0.05012580056959   -0.72241011927836
S           4.01428812774400    0.96236589278459   -1.67073101544866
C           5.28052580380881    0.24185838458809   -0.64755644441686
N           4.80693822656232   -0.58366053620473    0.24333015966632
N           3.50551645637326   -0.73654012829526    0.19988931832828
N           6.50059653520765    0.76761540128765   -0.69948777153083
N           7.55641308263227    0.08160028655263   -0.54077034896097
C           8.70070819476060    0.77315868628951   -0.37729718428291
N           9.85420235857946    0.11220032350893   -0.31104088761265
C           8.94764104308499    2.18402718453323   -0.20550055032539
C           8.26664062199056    3.39859499760177   -0.16024940642207
N           8.93818761672986    4.51674389601148    0.02589529350136
C          10.25794913737694    4.46261537305898    0.17291865061038
N          11.02533673555825    3.38943678140974    0.15594113830099
C          10.34937497315981    2.26712063342393   -0.03581738037984
N          10.83082857462928    0.98542888775501   -0.11053452931909
C          12.13782459590395    0.57385741634157    0.00070629903695
C          13.31552554100675    1.26223185914643    0.19847261007492
N          14.33818363696351    0.38099449433614    0.23602179062002
C          13.81719704447114   -0.80460360913247    0.06900025900758
N          12.47335983902123   -0.74934541363035   -0.08069127499202
H          11.80997783482968   -1.49539232616942   -0.22190540152365
H           7.19425420225861    3.47507251769253   -0.27423867843190
H          10.76098058929751    5.40737264673830    0.32466044726913
H          13.46024850944612    2.31620884483933    0.31120006342659
H          14.37558732822633   -1.71822307881314    0.05053484958875
