30
         -60.384882637694          0.000934790945
C          -1.28258786717757   -0.43489289031850   -0.11342865425923
C          -0.60570390753952    0.79209645847766   -0.06316178864303
C           0.74247102698996    0.64345297198500    0.07872727455361
S           1.21814764887981   -1.00009817710836    0.15244153880471
C          -0.43308462147148   -1.51345987122321   -0.00827883917888
C          -0.80523773267433   -2.88437345715648   -0.01997146443129
S           0.33486411876524   -4.21322807028370    0.13924140257760
C          -1.09608105844153   -5.25376558009937    0.06481239973045
N          -2.20332490747673   -4.57393391687694   -0.09653913372655
N          -2.03919625528482   -3.28896380444772   -0.15274030824637
N          -0.91514871887710   -6.56751871192813   -0.04339352475714
N          -1.80683317948322   -7.38596350148744    0.32422462125861
C          -1.60626611255309   -8.70585572871498    0.11991536399670
N          -0.43592977580279   -9.31348311038492    0.02842990087064
C          -2.67879887721672   -9.67182259172905    0.11816389502337
C          -4.06644420847925   -9.60949411126678    0.17320349321241
C          -4.75844398821895  -10.80129635574081    0.12283868901232
C          -4.09963795110226  -12.03000425978973    0.01340322914586
C          -2.72329912270722  -12.11450553840488   -0.04769118594510
C          -2.03055487693995  -10.91457077784571    0.00411237200844
N          -0.67242106931924  -10.63605915168170   -0.02497705179835
C           0.29659667945281  -11.53886307511642   -0.06038217813132
N           1.10474693910263  -12.34904830558831   -0.10017159461612
H          -2.34479306216033   -0.55186910083166   -0.22239451037523
H          -1.09396097946073    1.74761201236643   -0.12957750010880
H           1.48982291983485    1.40927903891463    0.14529371856051
H          -4.56737463855067   -8.65887125498137    0.25761407359585
H          -5.83672506199410  -10.79206087356625    0.16883650962986
H          -4.68479070798992  -12.93604137060888   -0.02508210822037
H          -2.20793065210437  -13.05805689456161   -0.13498863954282
