24
         -50.442596025155          0.000975362980
H           0.88334252500402   -0.01365762550779    0.27304040419919
C           1.93121009324153    0.15174631024998    0.12761757186228
S           2.84741225811192    1.20397187518455    1.16993068287804
C           4.23699805435668    0.72425112205729    0.16493938175180
N           3.89244749226491   -0.08400545561630   -0.80273729569235
N           2.61611495356151   -0.38504869453555   -0.81379498556692
N           5.37210493214594    1.39112259284577    0.30449386268097
N           6.52107573817607    0.86515630185896    0.20929704154645
C           7.59060197378831    1.67197873509382    0.12432267740291
N           7.59091447253535    3.00672118796402   -0.03164523736456
C           8.94217658194124    1.20129896701043    0.15110347523786
C           9.67578385900279    0.02008881165634    0.27991776661748
N          10.98472303663356    0.05242749934930    0.26087481595539
C          11.61840139698491    1.23761880481909    0.12224167841472
N          12.96101861264831    1.18966027280049    0.14991600266168
H          13.48586813112793    2.02191971248616   -0.04584984742211
H          13.40508577222044    0.28985229476317    0.15787605726278
N          11.04526297294895    2.43413578969222   -0.01353463449853
C           9.71983820061359    2.37209665213778   -0.00358909113045
N           8.83946907105583    3.40215866360546   -0.11205938500899
N           9.15944193296956    4.70985648562232   -0.37731619987606
H           9.20865901046770   -0.94750996448276    0.39632969055984
H          10.04869488537921    4.94904264855718    0.04967984371017
H           8.39902404281923    5.31908701238776   -0.09339427618145
