31
         -67.453148176799          0.000321641479
C          -0.83542800628099    1.28216109977924    0.06379054110637
C           0.46485506315520    1.17601568743803   -0.17714636204838
S           1.36731079836963   -0.33236979837795   -0.27797513805775
C           0.03285836926570   -1.44530095447350   -0.01395695322442
C          -1.22898146155365   -1.09799346251601    0.21466923647464
N          -1.70705916600031    0.20932313732335    0.27902593480270
C          -3.00383121353760    0.47156641384963    0.54969939314391
S          -4.20498117338269   -0.76392934138020    0.88601010985610
C          -5.33098364366216    0.61941119628514    1.09289230120502
N          -4.74243260952441    1.76084297963470    0.88854753783522
N          -3.48422106665548    1.69496946394399    0.58283788205575
N          -6.60433686568340    0.31605554968724    1.30780798605737
N          -7.41168127331113    1.23957623891973    1.68144868231604
C          -8.70209982445008    0.90123459846602    1.86234068709019
N          -9.21860255010839   -0.32814710228559    1.92046684769258
C          -9.73496011299202    1.86580339549952    2.11125827433631
C          -9.91723155393525    3.24625382010584    2.19291923042520
N         -11.10023402405300    3.74363179386536    2.45801013960205
C         -12.14132157253761    2.90420675855672    2.64571279948150
N         -13.32151015239460    3.47980334619908    2.91699410796019
H         -14.12781115336631    2.90129833366697    3.06402087495480
H         -13.37659410608787    4.48032141267967    2.96077783839531
N         -12.10964888115240    1.57073566653954    2.58788437841000
C         -10.90679741122382    1.09376675713098    2.32196723889081
N         -10.49598741618312   -0.18422936167627    2.18419827220704
F         -11.25746420134752   -1.30054535398414    2.37728392961997
H          -1.32541757933744    2.24272968439121    0.11294554602263
H           1.07610393997098    2.04689018079627   -0.33347025929197
H           0.32655445676115   -2.47915104356647   -0.05295226944276
H          -1.98392438519590   -1.85555185705968    0.36646767288154
H          -9.10800122356613    3.94769076056189    2.04678353924144
