37
         -69.406356066287          0.000664993168
C           0.33926822102023   -0.93480183767088   -1.94138405965618
N           0.26679475214194    0.40616779998367   -1.80937701080680
C          -0.71638998736309    0.63655491816078   -0.97836845922067
N          -1.29772096003360   -0.50457060296707   -0.55561730538375
H          -2.06861597237784   -0.63095103131695    0.08011800798780
C          -0.63153074472245   -1.53874996003117   -1.16559291271570
C          -0.99134535581381   -2.89708305162158   -0.94455293894177
S          -0.19607257934653   -4.25072910720827   -1.73159467893791
C          -1.37123673168245   -5.25312531798168   -0.84455829117227
N          -2.16113282632228   -4.54592398654216   -0.08432593693677
N          -1.94483747249512   -3.25739941226913   -0.13807618254769
N          -1.20381475351109   -6.57125112160606   -0.83775644386058
N          -2.18490976208187   -7.37771670629039   -0.75452035022306
C          -1.90940782832535   -8.67308113818345   -0.51022948028353
C          -2.91091807016079   -9.63110196053653   -0.46502425683501
C          -0.67354350350585   -9.36649216598106   -0.21544744389772
C           0.65050199340458   -8.95955367073396   -0.10698931924077
C           1.59941621551919   -9.90961303864948    0.21397201692069
C           1.24595359071104  -11.23919298994604    0.43893010200679
C          -0.06451328653994  -11.66536807622520    0.33512485330807
C          -1.01646683752345  -10.71845313635108   -0.00854249049681
N          -2.39086022969031  -10.84678731335438   -0.17237471444059
C          -3.12262079252469  -12.01534099879121   -0.05273182042389
C          -2.84262788782430  -13.32310768015106   -0.36805504807401
N          -3.90891053265223  -14.10340900113618   -0.06810459792030
C          -4.82055361234854  -13.31146058729288    0.41504235580653
N          -4.40182383648543  -12.02128041062932    0.44778545147239
H          -4.90716893579830  -11.21976282128383    0.78917759882452
H           1.07010915618949   -1.39751009098946   -2.57342148671704
H          -1.03070544395041    1.61156819787119   -0.66384746396103
H          -3.95757286076450   -9.48793467097712   -0.65354862069983
H           0.91614961620490   -7.92744608378711   -0.26954556527895
H           2.63563666591321   -9.62006290989734    0.30154168057960
H           2.01237076235052  -11.95205863418169    0.70274502852773
H          -0.33433993994703  -12.69144909220493    0.52654863561166
H          -1.96060150560115  -13.73812096652211   -0.80946415684107
H          -5.79043872406533  -13.62110134270440    0.74675530446735
