29
         -57.449581709275          0.000962569681
C           2.80957310040026   -0.82787045818500   -0.02988176666660
O           3.67414746662213    0.29724638354997    0.03524952331203
C           3.88134095373629    0.91897450229816   -1.10899212296872
S           4.97347494044661    2.29397822671247   -1.15585271989543
C           4.59678654301724    2.30799562967988   -2.90526217337548
N           3.74788356680939    1.38435854460818   -3.24273246360191
N           3.34338199691534    0.62430230891139   -2.24593271962128
N           5.00092740411899    3.35383558057669   -3.61970413802376
N           5.30490753579709    3.26234616111076   -4.84489027751077
C           5.45387931699450    4.39493368074854   -5.56012791190816
N           4.97204365506207    5.60097110659606   -5.25259379169898
C           6.07566505580864    4.44312258946781   -6.85099222823871
C           6.74561143549562    3.62548071093498   -7.75884224228943
N           7.17410108449736    4.11627986018693   -8.89712532921558
C           6.96210169675698    5.42057891623520   -9.17210925316623
N           7.43305468394691    5.85229269500894  -10.35410033364702
H           7.29863501669735    6.80907093925743  -10.62224729215122
H           7.89279213991733    5.19831980228357  -10.95951236291910
N           6.34202203603792    6.31000945058510   -8.39515336942772
C           5.91508651139403    5.79173561713458   -7.25143246348633
N           5.24029507748250    6.42272555033557   -6.25782444370142
C           4.81301046596013    7.79039348931463   -6.24788774339541
H           2.74407001594891   -1.21014014907404    0.98608993923689
H           3.21980446068299   -1.58556783950169   -0.70027020884719
H           1.82485426071667   -0.53063336494347   -0.39512531145837
H           6.93326874782387    2.57682167099547   -7.57486960721392
H           5.09869093727996    8.23277328614109   -7.19990321403235
H           5.29080789440247    8.32616788050157   -5.42620036001359
H           3.73158199923171    7.84065722853025   -6.11542361407361
