28
         -54.547274357919          0.000674714905
C           1.57871897458911   -0.18521595611968   -0.20274379135737
O           2.98935127736842   -0.28919423974181   -0.07090865963911
C           3.42872831028569   -1.42036012759301    0.44248651410875
S           5.15749630990272   -1.67186442516565    0.61510469587046
C           4.68208188972129   -3.26847723796687    1.26373214830554
N           3.39728460066993   -3.42863019746792    1.30888041042462
N           2.70263331963150   -2.40231891033977    0.86268463598536
N           5.63228646548156   -4.02411310450097    1.81816801434586
N           5.52648353433805   -5.29128221463426    1.84715838000950
C           6.44397158813028   -5.96006792931578    2.58584117792813
C           6.44283246716955   -7.33662238064155    2.66324258368578
C           7.53979579769376   -5.49165401386544    3.41649724565719
C           8.04401227437240   -4.23636328539578    3.73221165471397
C           9.13624562943070   -4.16800885750349    4.57631147053301
C           9.72488999204528   -5.31586724602693    5.10313008595011
C           9.24051270362387   -6.57591769750989    4.80155972246780
C           8.14789696026753   -6.63907563633452    3.95587839931569
N           7.45604574316715   -7.75566521410144    3.48057424242164
C           7.74456045899970   -9.01200214995861    3.78074808169841
N           8.00521494199087  -10.09426399963571    4.04909294802154
H           1.39123544084219    0.81087520913236   -0.59644126915258
H           1.09539422463597   -0.31561142034068    0.76709215014542
H           1.20302697587968   -0.94674578137972   -0.88868173805319
H           5.77958394038872   -8.03434778726444    2.18968205189510
H           7.58904156553993   -3.34907454401651    3.32296356398798
H           9.54618718042037   -3.20379923709692    4.83586354077781
H          10.57641494055036   -5.22116195789663    5.75921075067305
H           9.69077249286186   -7.47057965731976    5.20383098927938
