23
         -46.943562193745          0.000434145389
H           1.16703363792362   -0.46189344680229    1.18871088996398
C           2.18095406855370   -0.22522223950758    0.93927729713095
S           3.08674026315115    0.96927174233017    1.82651280659290
C           4.42072348617988    0.53281619413619    0.73430661536842
N           4.07275452402611   -0.36823166142587   -0.14111272832464
N           2.83057259149228   -0.77578838089651   -0.01795745000118
N           5.51034970908868    1.29548058478723    0.73019704105760
N           6.68184300700456    0.83782046106107    0.56981256320081
C           7.67525259467031    1.72969458987507    0.37287541556168
C           8.99915882374275    1.32760901053989    0.23424392614222
C           7.66406608758732    3.17178845362750    0.24074486143399
C           6.66821505565419    4.14118933052789    0.28897020085545
C           7.03360183140475    5.46240690840048    0.12371304488253
C           8.36180600503286    5.83434455198463   -0.08802002780638
C           9.37217884044555    4.89453451869229   -0.14066638760126
C           9.00345733069629    3.56941614695773    0.02676973159459
N           9.74692945710855    2.42037837224018    0.03311392688092
F          11.10116826570733    2.38514844745310   -0.14652552545824
H           9.41693127750283    0.34130910501155    0.26569941041917
H           5.64177108094497    3.85568511638369    0.45259845899125
H           6.27602204410299    6.23037542070423    0.15840740264801
H           8.60430891821280    6.87838187765811   -0.21270486182028
H          10.40160109976683    5.17297489626050   -0.30358661171182
