34
         -70.067387747955          0.000675677716
C          -4.59442583584898   -0.77522400331056   -0.07118621814412
C          -5.75016835471947    0.02185182202867    0.02320649823182
C          -6.79644868143133   -0.84515988619040    0.16234652168364
O          -6.37152935793882   -2.11261830606174    0.16111246276246
C          -5.02797769025710   -2.08107516340007    0.01852133969786
C          -4.28732935747261   -3.29533427615710   -0.01491543953243
S          -5.02509765360824   -4.87079822766772    0.20190733310380
C          -3.37217850638374   -5.49604961919705    0.04781882448657
N          -2.49687529008497   -4.54840133504966   -0.16979224126463
N          -2.99858806186856   -3.35201455893740   -0.21103030254742
N          -3.20968375009646   -6.81478724396781   -0.03176857303313
N          -2.08800011016345   -7.34415889031399    0.24862441490857
C          -1.94878946908615   -8.67313225516942    0.08998371340441
N          -2.91988106280009   -9.58058767425779    0.03121619297955
C          -0.67493075396452   -9.33717134724012    0.08977814645371
C           0.68409767319279   -9.04165495488022    0.11618217535975
N           1.56794148444699  -10.02012491593803    0.08696379618380
C           1.13533561135719  -11.27473333443612    0.02214562244825
N          -0.11363424356337  -11.69682641301482   -0.01775684256044
C          -1.00306096095843  -10.71295395334318    0.01658575706009
N          -2.36868508802033  -10.79094871972149    0.00272915112565
C          -3.14487779889117  -11.92690403201967    0.00714496013340
C          -2.72428995404443  -13.22837342128352   -0.00733973266482
C          -3.81135421261511  -14.12307039826280    0.00649159449395
C          -5.01612985063245  -13.49229908350370    0.03132878972920
S          -4.86958086647132  -11.77935814799913    0.03695520564877
H          -3.57906684482725   -0.46016973133802   -0.18767125007276
H          -5.80120984778147    1.09056874083280   -0.00734640023686
H          -7.85110155466302   -0.68188602807982    0.26596127916188
H           1.06194803277469   -8.03013640852467    0.16430271177938
H           1.89764364735316  -12.04137701542835   -0.00179631787249
H          -1.68813305640182  -13.50963373131121   -0.02732239573868
H          -3.69920192512670  -15.19188929076179   -0.00085890455874
H          -5.99242630940293  -13.93380819609328    0.04758812739041
