36
         -70.008350678965          0.000587264013
C          -6.28579646296715   -1.81124708217054    1.01546470743139
N          -6.66864458091151   -0.56020053334582    0.68886137122627
C          -5.95082616369879   -0.22057420951725   -0.35112583685234
N          -5.10533839612174   -1.20273412961135   -0.72342832688321
H          -4.44355105343743   -1.22059831655379   -1.48248717780740
C          -5.30219661637078   -2.24697005639794    0.14651031789478
C          -4.56739830699956   -3.45964826046188    0.04674192623753
S          -4.75618101524378   -4.80229100634515    1.16071782981435
C          -3.47019429185689   -5.57744525684514    0.19990670244745
N          -3.07629973905707   -4.83208892228658   -0.80054001000119
N          -3.68530207776292   -3.68301971598582   -0.88542226445173
N          -3.21333495703633   -6.85829775447516    0.41372563634460
N          -2.06476988070493   -7.36959948874672    0.24040878489401
C          -1.95218269712274   -8.70919004641596    0.21472509497740
N          -2.93851419434879   -9.59754884270812    0.08747338993745
C          -0.68483322054668   -9.39021072581929    0.23810806690112
C           0.64311575742776   -8.99332056654650    0.34742128996349
C           1.60627569677546   -9.97849099487043    0.33625614194137
C           1.26661750340159  -11.33104003774615    0.22377402940155
C          -0.04330394206788  -11.74722811964991    0.11444540298913
C          -1.01709375888160  -10.75568162179443    0.12201482344206
N          -2.39363546873106  -10.80494127172648    0.02686333545621
C          -3.20606307538012  -11.90440562214783   -0.12666150995421
C          -4.57282170087454  -11.97221602206051   -0.19459380440111
C          -4.87181523782602  -13.34466814464672   -0.35163481065463
C          -3.67894144783781  -13.99826769447144   -0.36583488101709
O          -2.65580568730363  -13.12857426208497   -0.22941982419529
H          -6.72298468617896   -2.33469393773099    1.84188885927953
H          -6.01967306255739    0.72321502315010   -0.85402229622613
H           0.89219376494858   -7.94814007442624    0.43225368771197
H           2.64845529880024   -9.70836071593166    0.41532440861549
H           2.05451965993195  -12.06907347105760    0.22193775703660
H          -0.29933110230788  -12.79000819612140    0.02795643123932
H          -5.24799843256971  -11.14557772158599   -0.13798642504796
H          -5.84450404454019  -13.78174075752939   -0.44037795088262
H          -3.42421238003322  -15.03426144334052   -0.46191487680106
