33
         -67.931385352903          0.000578047824
C           2.82841236739867   -0.47197854862807   -0.41688373446458
O           2.91423612671723    0.56901980148847    0.54616856604851
C           3.49941444863346    1.67571391043569    0.13406538254993
S           3.70206985655244    3.01343009041494    1.25048516061788
C           4.50933617859035    3.81520816819096   -0.13029257429612
N           4.51993376806617    3.07716606938731   -1.19949783874177
N           3.95134294699885    1.90009569213494   -1.05677055070655
N           4.80194774179179    5.10709908095808   -0.01527429660787
N           5.76480101075729    5.63062798831602   -0.65348287817760
C           5.85084652712024    6.97174752864967   -0.71407030180174
N           4.85767666756560    7.84134442862524   -0.53317129265760
C           7.03703361877548    7.66988032426156   -1.12040901578147
C           8.36504110348881    7.41829761308418   -1.45800485458142
N           9.16339328977138    8.40751588407284   -1.78159562963158
C           8.67937149165561    9.66646786188816   -1.77491719385337
N           9.54615172247162   10.63551345454118   -2.10764913280293
H           9.22939444540627   11.58669578620461   -2.13646127196806
H          10.48333003923296   10.38535677002586   -2.36218919352315
N           7.43502095427260   10.04101708006758   -1.46785086277495
C           6.64884763335657    9.02899600714964   -1.14920110844560
N           5.32368664313267    9.06355306985644   -0.79868318037880
C           4.49125362945740   10.15768387479821   -0.72201815833559
C           3.16954307885160   10.22478332849626   -0.36655105729414
C           2.83213641773908   11.59409796385519   -0.45550028306859
C           3.96317963981758   12.24073148545219   -0.85230829602950
O           4.97822178008216   11.37199224811899   -1.01729038972596
H           2.31431192228452   -1.29157166381309    0.07905692989943
H           3.82584066992427   -0.77959898479023   -0.73528490549652
H           2.26780223455732   -0.13632068074732   -1.29081186836401
H           8.78465788058473    6.42225057475611   -1.47366756801505
H           2.54852913286337    9.40126090146197   -0.08574542445072
H           1.87787811585059   12.03288162131255   -0.25021099177887
H           4.17124691622827   13.27379126997378   -1.04500218536374
