25
         -50.412621531319          0.000743945677
F           1.59291278451387    0.01316240412878   -1.11337348699205
C           2.86951241665555   -0.00077161066408   -0.79838907318013
S           4.04753130443212    0.85944704839502   -1.78023308919659
C           5.21922719758161    0.19898540728732   -0.60263467842964
N           4.65190645437131   -0.50822592137662    0.33279357317098
N           3.34289701329732   -0.61099541331776    0.21869818410654
N           6.45569506914979    0.67228642327129   -0.62272948882383
N           7.50044526105785   -0.02597524727282   -0.43532805763304
C           8.66239861574887    0.61446117135920   -0.24854426210936
C           9.87095027467339   -0.07628771589769   -0.12191181723947
C           8.98861293461883    2.01676952066264   -0.11814819099133
C           8.24498862737579    3.19029450755159   -0.15765350440870
C           8.90969525124945    4.38902739951092    0.00888271194886
C          10.28856423369362    4.43624018791327    0.21589984111499
C          11.04911632945381    3.28425767532232    0.25995163555271
C          10.38314215564502    2.07962087286330    0.08935393047878
N          10.87372972235477    0.78808776546410    0.06911273515855
N          12.19827398308908    0.46725304827778    0.32034874420719
H          10.02720428201385   -1.13742622896117   -0.15720830590274
H           7.17924986193335    3.15306021648794   -0.31513279998473
H           8.35370803122524    5.31383308638371   -0.01803219276907
H          10.77008114637851    5.39331779716333    0.34685297827167
H          12.11352196128877    3.32179819759152    0.43386793225894
H          12.82198156470355    1.03689111867784   -0.24577484518571
H          12.36220352349450   -0.51940171082137    0.14668152657738
