24
         -51.264792183901          0.000600649143
N           1.57990995767358    0.05096618709741   -0.39195596459420
C           2.70669849905447    0.04400584028448   -0.17808549666460
C           4.08558476570800    0.05307334432433    0.05130810156516
S           5.19985165441543    0.85361716496022   -1.06772079012843
C           6.46292502296847    0.25362390592560    0.02034526162591
N           5.97796845124128   -0.40019782405801    1.05373417595643
N           4.68596857981614   -0.49775179232750    1.05592678110548
N           7.69437882101174    0.71201002142199   -0.11261707616050
N           8.75807447067245    0.04283707460883   -0.09774654035398
C           9.92530404031256    0.71872684950544   -0.00678238594736
C          10.20396137435113    2.10301984360022    0.20980157051762
C          11.56469644456333    2.17926672849369    0.24543642903928
N          11.06956585541503    0.03120757160863   -0.09096492730366
N          12.03664191923204    0.91097588606934    0.05972030949973
C          13.35176244086916    0.49995813926062    0.02470633809740
C          14.55381247159070    1.16394765584389    0.13108124686171
N          15.56429378154920    0.27265228663984    0.02762152930230
C          15.01198054835681   -0.89845631369008   -0.13643184714399
N          13.66217162440703   -0.82078592676900   -0.14663210325386
H          12.97235611079294   -1.54873288044776   -0.25260678244138
H           9.48546824431827    2.88768111956637    0.31952345454057
H          12.22909356859662    3.00652774804172    0.38531972211555
H          14.74757902645199    2.20700560877124    0.27276126949098
H          15.55259232663123   -1.81568823873221   -0.25019227572671
