36
         -73.663921012980          0.000819732051
C           0.65647324794901   -0.91272282325437   -0.68162365822862
N           0.71064788944760    0.38395110905733   -0.31708424478745
C          -0.15273107557064    0.52489826334773    0.65601395509419
N          -0.77652490770140   -0.63369766810563    0.94915042960672
H          -1.47947237988897   -0.81863736740781    1.64667030420473
C          -0.27030292249060   -1.58372113705312    0.09635404736747
C          -0.71020137246902   -2.93435035976782    0.12542981178956
S          -0.12214012389752   -4.17064987867044   -0.97089007005126
C          -1.26981289992485   -5.24334895388493   -0.12900020845366
N          -1.90872743257307   -4.63209531190458    0.83539736811308
N          -1.59237467789882   -3.37724816516548    0.97682804142938
N          -1.20404675692735   -6.54483307951949   -0.36581430455562
N          -2.21414436893399   -7.30824473752754   -0.26692220696943
C          -2.01723153660853   -8.63629666886192   -0.22453337435385
N          -0.87199815047973   -9.26359751490392    0.05430927618685
C          -3.07157248197837   -9.59951438726932   -0.35950919128998
C          -4.43975839714791   -9.66137847467647   -0.62063586732783
N          -5.05322232023984  -10.81904131340562   -0.64871931698947
C          -4.34253638451666  -11.94503477555917   -0.42742706246299
N          -5.03199848660395  -13.09439817781897   -0.47872553176146
H          -4.56200597761528  -13.96225597821814   -0.29942827932289
H          -6.02037580882896  -13.05893110783929   -0.64608899645397
N          -3.03426659046962  -12.02388976886013   -0.16892080279935
C          -2.43854407547679  -10.84398607732251   -0.14263690280166
N          -1.12133299679986  -10.57288645146341    0.10876695562125
C          -0.12176651341554  -11.46520959239979    0.41245736938918
C          -0.10441161643150  -12.83543393279201    0.54197832376555
N           1.15041793282971  -13.23457017339099    0.85263051456317
C           1.88015909868835  -12.15429536560079    0.91212290578933
N           1.15539591534397  -11.04034118325278    0.65114991367236
H           1.44252956975544  -10.07450460400868    0.62446379937091
H           1.27189265556918   -1.30244488659234   -1.46758705946478
H          -0.34707132144064    1.44726684971359    1.16605473087903
H          -5.04020690442452   -8.78088781251752   -0.80127665929146
H          -0.91496556974160  -13.52339220556120    0.42781396673899
H           2.92652774091467  -12.13608628754417    1.13919202378315
