26
         -50.263973154585          0.000814008746
C           1.48566358369092    0.01560249236667   -0.06600999153083
C           2.96427193511902   -0.01323129317956   -0.06474439467809
S           3.94320290163604    1.43344047460441   -0.07031338721359
C           5.32965994984394    0.32100307605086   -0.06389639232686
N           4.95936059416950   -0.92125871801291   -0.05872399508136
N           3.66464833835384   -1.10133707374829   -0.05922735734406
N           6.55389768753009    0.88014211025653   -0.06504277267032
N           7.55933694054484    0.08776006859625   -0.05983322325507
C           8.77128991662929    0.68906286957860   -0.06105734655541
C           9.13453800647289    2.07477222534503   -0.06786866477888
C          10.49543990752958    2.07322968575204   -0.06549019399562
N           9.86823180397696   -0.07116424978772   -0.05508850150227
N          10.88934579017364    0.76159519097932   -0.05774566825692
C          12.18270643173689    0.28634087957607   -0.05266531532692
C          12.64973926854801   -0.99957187607976   -0.04443383524455
C          14.05942440199646   -0.88338093791268   -0.04237979130734
C          14.33491886642980    0.44900506411306   -0.04950533479047
O          13.19667814450642    1.17253165037451   -0.05576854899531
H           1.12151076552163    1.03853227311436   -0.07360253926046
H           1.10882417150123   -0.49891336021708    0.81685111527998
H           1.11005400720921   -0.51173459819738   -0.94177598455687
H           8.46190866048441    2.90624118316442   -0.07352413793099
H          11.21711683773696    2.86469762951481   -0.06847247441863
H          12.05212696487262   -1.88585435606830   -0.04050555354247
H          14.76739337026257   -1.68575434756408   -0.03641558908852
H          15.25669075352327    0.99480393738076   -0.05086012162816
