23
         -55.703346035827          0.000998646372
N           1.61035950236655    0.38463847086374    0.06868565795259
C           2.75313004809315    0.30224899110366    0.06353067869829
C           4.15343657198846    0.23001612794570    0.05664712901302
S           5.15087521571072    1.66292501585647    0.03897030399867
C           6.50753959904393    0.52387199330254    0.04143448771374
N           6.11673717039017   -0.72127637743597    0.05561487191492
N           4.83312563848997   -0.88429770136129    0.06382753957788
N           7.74135305088005    1.05474595335588    0.03735757822062
N           8.72402012487593    0.23443390129918    0.03003795353528
C           9.96618163842276    0.74485944358078    0.03600517474655
N          10.31819931727970    2.03748402645016    0.04470624885586
C          11.14738923062003   -0.06881515574560    0.03772643323471
C          11.52964929782917   -1.41402018251569    0.03238548551473
N          12.79641141297912   -1.73742349071157    0.04279520381847
C          13.73371549590656   -0.76277828756784    0.05829836891520
N          15.00719043214939   -1.16905894991469    0.07646077916429
H          15.74389046778136   -0.48684010795821    0.07740335004629
H          15.20471462571630   -2.15313954064973    0.06898691882408
N          13.50542980359405    0.55442999777632    0.05851565304304
C          12.22158824811411    0.85518543098657    0.04931922169813
N          11.61858951005870    2.06888117836211    0.05068129718050
F          12.24829351723450    3.27367481529976    0.06089791761827
H          10.81102008047557   -2.22101555232271    0.01940174671526
