32
         -63.038953753159          0.000455073037
C           1.41326213991269    0.22347040977829   -0.05051353884076
C           2.88128264671720    0.19232581941887    0.11379396881504
S           3.98203652121391    0.73941018971676   -1.14642119742670
C           5.26931068349963    0.25394643832783   -0.02384148228708
N           4.80010988335339   -0.19784348232595    1.10763344364178
N           3.49138935422302   -0.21762125450817    1.16995296566730
N           6.51627025595555    0.60538751836412   -0.31048107346258
N           7.52018720746139   -0.10152649182347   -0.00460774308475
C           8.74669831757872    0.44620145624696   -0.07278600697702
N           9.03999341910158    1.74495962516308   -0.04002012811641
C           9.95995092679532   -0.31998602027365   -0.06225076967583
C          10.38855739524219   -1.64559822823116   -0.07881400652327
N          11.66959938042752   -1.92547203955961   -0.06320662121430
C          12.55996077824303   -0.91342969462050   -0.03679323475959
N          13.85455860735833   -1.26968113574830   -0.03949751915128
H          14.56388495432098   -0.56353335303359    0.02298014310132
H          14.08653962699423   -2.24508515930960   -0.01119331197001
N          12.28274865130772    0.39312735868531   -0.01749947119160
C          10.98476378570777    0.65231934586767   -0.03128867701345
N          10.36407503043221    1.87324529024235   -0.00539696152122
C          10.95242728494669    3.11273766513887    0.07248941505664
C          12.28720348474497    3.40639929407231    0.11820133202930
C          12.51055893251404    4.79486146655646    0.19094668734795
C          11.35785463258906    5.51637172699132    0.19874690248889
S           9.95403528782885    4.52610293993566    0.11637187635831
H           1.05755157121928    1.25337788315872   -0.06776668719871
H           0.95018922494227   -0.30033375299120    0.78114586111367
H           1.12782504855484   -0.24803774585657   -0.98912481269300
H           9.70297715859444   -2.48102101575667   -0.09815086075413
H          13.05026350450033    2.65161974002339    0.09869658064009
H          13.48933565028948    5.23679606309930    0.23579035473383
H          11.24540865342864    6.58084914325081    0.24881457286787
