33
         -62.701415151882          0.000902057267
C          -0.95704876188204    1.38428891832154    0.08602294498900
C           0.33891677995656    1.34780555364574   -0.19175339298103
S           1.30053390702755   -0.11549840916009   -0.40498325463678
C           0.02515257047436   -1.29766004232797   -0.12996648377318
C          -1.24384107126738   -1.01522779100614    0.14027617082629
N          -1.78016640195052    0.26567744169907    0.25546741889057
C          -3.08739199801377    0.46036418882496    0.54385127184989
S          -4.24311556303950   -0.84261608029090    0.76592449450155
C          -5.42829400407081    0.47876741734297    1.05519447361747
N          -4.87972959885949    1.64930832795318    0.96381466623508
N          -3.60674506307487    1.65565962846949    0.68876469346707
N          -6.66340533212974    0.09613228260004    1.36963657052258
N          -7.55601990771465    1.01532844884785    1.51966781115565
C          -8.79345028098007    0.62344593095966    1.85237584213979
N          -9.26665206125353   -0.62956882767649    1.93163821772196
C          -9.85317567508823    1.54836305148337    2.14772704076386
C          -9.97111305703463    2.93308874659060    2.22103687636239
C         -11.20067160585331    3.45298715420424    2.55900568054390
C         -12.30211910638585    2.62822679376447    2.82677000678768
C         -12.21235848579356    1.25612063233621    2.76300291933294
C         -10.97071342045145    0.72938154178965    2.42158803695265
N         -10.53598507854850   -0.55482494301585    2.26138008924061
N         -11.28874377763161   -1.69485070783269    2.45454660061803
H          -1.48445009032192    2.31863106744644    0.20500425241075
H           0.91167930760716    2.25026910882878   -0.30912014046514
H           0.36734050756291   -2.31464431749153   -0.20026453790895
H          -1.95800632033656   -1.81076410129397    0.29476087671314
H          -9.11886830871131    3.55989840796514    2.01499014548592
H         -11.32856907440059    4.52314639830487    2.62366032980934
H         -13.24375715775273    3.08549279932717    3.09154014060222
H         -13.05343197195549    0.61583261155684    2.97713834743971
H         -11.99429935731297   -1.80209591172709    1.72714214951603
H         -10.65718054081334   -2.49136532043922    2.44131974126888
