36
         -73.180735314736          0.000926040095
C           0.62179234381578   -0.89299693028110   -0.70849833759220
N           0.71376915011253    0.39320729404157   -0.31458836427684
C          -0.08505621502538    0.51655489952059    0.71473173639701
N          -0.70357933030098   -0.64282675367488    1.01532884733873
H          -1.36253220090450   -0.84096298959781    1.75112796240475
C          -0.26266160939303   -1.57501341056207    0.10767591853515
C          -0.71802739861139   -2.92088885219744    0.13273513353146
S          -0.21153180531938   -4.14219815494124   -1.01859185730744
C          -1.32351705233738   -5.21713035060765   -0.13240451434142
N          -1.89901783769717   -4.61626011399169    0.87844553492637
N          -1.55634808746283   -3.36918859435977    1.02535801287973
N          -1.28121236561568   -6.51360527960378   -0.39041407600371
N          -2.28083393109744   -7.28180735388279   -0.25870836385452
C          -2.07440121094885   -8.60986170508846   -0.23534049999869
N          -0.92406605499719   -9.22878842887130    0.02784456762213
C          -3.12208938262683   -9.58172431594641   -0.36789902190937
C          -4.48948264903704   -9.65331112773932   -0.62488563826254
N          -5.09466278080731  -10.81624961301928   -0.66193520862699
C          -4.37346467709305  -11.93574626364150   -0.45329559519943
N          -5.05319189293028  -13.09191373276769   -0.50626517550901
H          -4.57346722146926  -13.95940291053170   -0.35544859067492
H          -6.03932993270660  -13.06642619283097   -0.68695411241917
N          -3.06306314660697  -12.00558758382530   -0.20247974384231
C          -2.47389082882131  -10.82110657525319   -0.16665116047295
N          -1.15572492232314  -10.53760192599447    0.07687979604189
C          -0.14576791492321  -11.42397708879138    0.36432273173822
C          -0.22992476304520  -12.78473697712819    0.47234678549568
C           1.01996367773308  -13.35900164649925    0.77378113367260
C           2.01277236011726  -12.43634437810938    0.88656637108125
S           1.45808039450970  -10.82883780622734    0.62812169978646
H           1.18255440166883   -1.26584026515216   -1.54191960605484
H          -0.23630447080485    1.42639518086899    1.26074593884510
H          -5.09849914782919   -8.77698309743034   -0.79584284868662
H          -1.14815976156639  -13.32428589481208    0.33811756983240
H           1.17242483437097  -14.41528099412577    0.90171415704785
H           3.04761142997042  -12.60451006694589    1.10827881785870
