37
         -68.926365470786          0.000709089113
C           0.35509725888916   -0.94870203383089   -1.98272064082116
N           0.31108753008430    0.39459425696570   -1.86037860012457
C          -0.63229082674852    0.64881608854011   -0.99109430024814
N          -1.21447640768094   -0.47870252591126   -0.53375393444024
H          -1.95984705662061   -0.58434056046940    0.13540142992586
C          -0.59214495449768   -1.52940940152863   -1.16149253215525
C          -0.96424020295199   -2.87986042537625   -0.91455318376119
S          -0.22521304630597   -4.25030038003951   -1.73030869808221
C          -1.37785585053627   -5.23056234466093   -0.78742042356154
N          -2.12053935907169   -4.50709138475200    0.00369002821198
N          -1.88578278066185   -3.22238261848053   -0.06554730177418
N          -1.22757237548130   -6.54986192987657   -0.78329744754601
N          -2.20948105926772   -7.35135642206206   -0.67917826148443
C          -1.93393781859464   -8.64864022110722   -0.44535422742373
C          -2.93322292522477   -9.60697958009480   -0.38072559312662
C          -0.69018998467672   -9.34348605452824   -0.18476782735721
C           0.63432361547776   -8.93341645264841   -0.10133897999696
C           1.59229491701190   -9.88004373780053    0.20325326091720
C           1.24516868675554  -11.20844277747375    0.43981360351551
C          -0.06632114843767  -11.63772562011902    0.35796043465581
C          -1.02760959316882  -10.69665067714509    0.02486866002785
N          -2.40642184500049  -10.82514245742601   -0.11676210283150
C          -3.14320872656740  -11.98835118661394    0.01328161841962
C          -2.80874823026051  -13.25698331853137   -0.36405019357624
C          -3.82367815831733  -14.19157323233007   -0.06768621309559
C          -4.90828406265030  -13.62730319372406    0.51967810525326
S          -4.72533265205124  -11.93299602485171    0.74074976199618
H           1.05031652504281   -1.43034836692986   -2.64034912721057
H          -0.91661677557982    1.63191611726646   -0.67318140100082
H          -3.98861819672737   -9.47048586279727   -0.51798930554882
H           0.89355777515339   -7.90028917186603   -0.26759368388804
H           2.62910152177611   -9.58767187491728    0.27200240554147
H           2.01635353372456  -11.91874671071971    0.69692375885877
H          -0.32551110414082  -12.66346161552754    0.56681959843872
H          -1.89362263177859  -13.50927661575332   -0.86612557429720
H          -3.74704525911890  -15.23928198446129   -0.29354875178202
H          -5.81598833180026  -14.09933969841297    0.83779563936533
