31
         -59.760651018451          0.000831319750
C          -6.26836701777524   -1.80998649429025   -0.84414051936405
N          -6.57493690798088   -0.51554514138712   -0.61820789901424
C          -5.64259821783561   -0.05514050000801    0.17526295535989
N          -4.72921992298047   -0.99911297351786    0.48207368318767
H          -3.91260628015766   -0.92698026323225    1.06724874812248
C          -5.11191216798748   -2.14709336857186   -0.16649233424616
C          -4.36703757279758   -3.35419440164722   -0.06298266489899
S          -4.79586418485308   -4.83289460205440   -0.90875076776892
C          -3.33011376168301   -5.50642822997693   -0.15094575525390
N          -2.72434766758279   -4.64288191744421    0.62166597501051
N          -3.30088908323401   -3.47263809243830    0.67238699697074
N          -3.13145713406927   -6.81333984548087   -0.22242765149682
N          -1.97454182296660   -7.33913750342887   -0.23918680804791
C          -1.87466827131511   -8.66581688026509   -0.06456813071560
N          -2.86376033246881   -9.52614675134466    0.22791565495465
C          -0.63252087254366   -9.38088741325101   -0.13932743226058
C           0.69417969268259   -9.04852534818676   -0.40030463382394
C           1.62457185091091  -10.06281810413841   -0.36978122608245
C           1.26481180437729  -11.38762031168201   -0.08490527880178
C          -0.03854518071018  -11.74365130644773    0.17724040552496
C          -0.98042151299756  -10.71987803797781    0.14595644797678
N          -2.33180255785047  -10.71540655329823    0.34907800680597
N          -3.09683066912403  -11.79787107737675    0.72184643484458
H          -6.87834252615111   -2.43105138379775   -1.46850513554923
H          -5.60071647817815    0.95031676047623    0.54374450931061
H           0.96582457324139   -8.02789219136830   -0.61462095102394
H           2.66242456139080   -9.84034649611484   -0.56661092873918
H           2.03404444509295  -12.14478574559040   -0.06908729940100
H          -0.31973192058029  -12.75893845790895    0.40765467578836
H          -3.10606049690080  -12.51684610635053    0.00104397697324
H          -4.04094436697131  -11.46925126189798    0.90659694565919
