28
         -57.685053900017          0.000487547526
C           1.75253399334629   -0.78540391704226    0.07049313410280
O           2.79199930029812    0.14634912057606   -0.19079253490340
C           3.30165657533997    0.09858469964048   -1.40757400648324
S           4.62238611377522    1.17554659498857   -1.82979621024524
C           4.55126634006045    0.35399428642009   -3.41880690600820
N           3.61412234451356   -0.54347996867191   -3.47600531951903
N           2.91554041543861   -0.67584158500766   -2.36592612788998
N           5.26134599407771    0.87108856205923   -4.41535277918049
N           5.72360552785411    0.15355027969990   -5.35682378517621
C           6.19911346704639    0.75988419554394   -6.45436874187491
N           5.98408367289915    2.03008228804614   -6.83420757774151
C           6.94444040069506    0.08433614876045   -7.47409744730622
C           7.48930349260163   -1.16649950257568   -7.76566949623679
N           8.12336544279914   -1.36297386734007   -8.89560261349274
C           8.24179239327562   -0.34429574594745   -9.77446073147012
N           8.86891259013607   -0.63656188793325  -10.92753556714439
H           9.07694604132636    0.10342748143759  -11.57222289029473
H           9.30342300980735   -1.53629485268868  -11.01887757366855
N           7.78140327795628    0.89749682233828   -9.62065848523148
C           7.15269538906182    1.07262114403508   -8.46479493601194
N           6.54723997265343    2.19977936478951   -8.01041535059001
N           6.54156761895181    3.42485900528030   -8.63132783014124
H           1.43740195672877   -0.59754164442766    1.09424704155344
H           2.12009078295541   -1.80800947365118   -0.03738079620328
H           0.92282601804183   -0.63468534365848   -0.62306728920018
H           7.41067296862278   -2.00869549130229   -7.09288136223810
H           6.48847744745948    3.31194421899382   -9.63892412200156
H           5.79152745227656    3.99514906763843   -8.25358969540238
