22
         -39.780864436179          0.000616991266
C           1.42488955163721    0.01062608644024    0.07961380609033
C           2.90438582363637    0.01614888865352    0.07697965466476
S           3.84675930713846    1.48667487362162    0.06976636279173
C           5.25930210587752    0.41147338685449    0.07065787454970
N           4.92182547056291   -0.84096101217642    0.07663256634180
N           3.63079593505137   -1.05445596250927    0.08024237055873
N           6.46584866769556    1.00692979406518    0.07086840005796
N           7.49505953694498    0.24936388499705    0.06029072574207
C           8.70204981873640    0.85875816656694    0.06353177486041
C           9.92997785047559    0.14245679702102    0.06027602455720
C          10.89228091362442    1.11429290557735    0.06258801727373
N           8.94736412488526    2.17951478650148    0.06771692288707
N          10.24863909697845    2.30985240396223    0.06646294609549
C          10.84967359721512    3.61169178609251    0.06747251677596
H           1.03930782501880    1.02572944907609    0.07383968387329
H           1.06130560391238   -0.51182347088636    0.96324936039879
H           1.05802334706582   -0.52334502571254   -0.79573899217348
H          10.04512962191665   -0.92025980339061    0.05746052152895
H          11.96207210408951    1.05522162756191    0.06147641287147
H          10.04714905263517    4.34625882108220    0.07367842525107
H          11.46443239201836    3.74986843447415   -0.82370230454500
H          11.47340825288366    3.74425318212719    0.95317692954796
