30
         -56.436269643394          0.000775683338
C          -1.26594002180645   -0.30887087039600    0.01688413183964
C          -0.36213780365832    0.77084942661798    0.01724238304468
C           0.88607641341664    0.21784328537597    0.01889341988393
O           0.81795437968799   -1.11826248311441    0.01966284513017
C          -0.49208491357200   -1.44856814139399    0.01839713154343
C          -0.88781110822909   -2.81707410578548    0.01906975268804
S           0.25232254935071   -4.14473496952497    0.02210703615396
C          -1.19302398623332   -5.18296932364145    0.02119880714843
N          -2.29551103180083   -4.49461510127954    0.01908956496511
N          -2.13377407232602   -3.20220915938341    0.01788295702627
N          -0.98902611053872   -6.50947557292833    0.02418446225002
N          -2.03977118698865   -7.25585479634813    0.02185286841064
C          -1.83359079288725   -8.58410178128420    0.02624863723123
C          -0.65055704237459   -9.32536553802420    0.03283132540737
C          -2.90904458344305   -9.54524344697470    0.02476367875525
C          -4.29402005623754   -9.43371978721176    0.01929618886552
C          -5.03918778441326  -10.59560966572047    0.01969958940602
C          -4.43099708337969  -11.85192514312538    0.02539555442513
C          -3.05635507162853  -11.98571393613757    0.03090622657400
C          -2.30531797580019  -10.81999792423028    0.03054609824716
N          -0.94002088326334  -10.64022829430658    0.03523976893265
H          -0.26259532208364  -11.38667121132323    0.03982292729084
H          -2.33512791402666   -0.28070745126399    0.01571379568575
H          -0.60283209224466    1.81400280658847    0.01639853708748
H           1.86356918890805    0.65853843089755    0.01970144936780
H           0.35821267513519   -8.95930085358243    0.03560357328217
H          -4.75606685010942   -8.45981626198554    0.01493465320072
H          -6.11733993383673  -10.53864623050649    0.01553619463272
H          -5.04912834927814  -12.73706901307346    0.02550494695690
H          -2.58537323633847  -12.95745288693397    0.03534149456696
