30
         -53.196826411218          0.000493428117
C           2.20519780357277   -0.65023356702694   -0.47388801509819
O           3.40864438760630   -0.15975914086981    0.09592829006270
C           3.77669767181632   -0.74620177303824    1.22304874817559
S           5.26818446828640   -0.23727379869075    2.00225467264262
C           4.86087060520789   -1.50242703034963    3.20533795339284
N           3.74512806498109   -2.10390786391721    2.94011674284625
N           3.13976106166029   -1.67693242006359    1.84273403975813
N           5.57127149925179   -1.53356318238931    4.32955899659410
N           5.81999791570932   -2.61123713062508    4.95873417510486
C           6.36477853411583   -2.49199743327036    6.18519961893677
C           6.72439212544279   -3.59899687590415    6.94612934147486
C           6.68045256463336   -1.33368010892411    6.99152621055893
C           6.56433085836481    0.03768706011800    6.79904564164567
C           6.98301917527395    0.87508013995039    7.81375957324871
C           7.50835087287845    0.37054140609443    9.00306834322714
C           7.63338446785533   -0.98873102908305    9.21540695574322
C           7.21563325437387   -1.83380414869728    8.19778854482754
N           7.22567556610129   -3.21303421637449    8.13198391494584
C           7.69431029882902   -4.07683858406769    9.17693999307780
H           2.05101724629342   -0.07347146150301   -1.38288937652857
H           1.37197621850407   -0.51053041229518    0.21769706275312
H           2.29689105440333   -1.71375897076738   -0.70298973340790
H           6.63380533231664   -4.63413808492406    6.67793266853352
H           6.15884164567874    0.42426035100417    5.87802546409962
H           6.90412081116105    1.94458260692502    7.68881807244407
H           7.82419793578107    1.05763683978187    9.77379624628322
H           8.04080253981054   -1.37291756914389   10.13828875037856
H           8.73140165824303   -3.84105248986402    9.42616939789148
H           7.63511235879610   -5.11228188190628    8.84698535505839
H           7.08426200305438   -3.95405923017885   10.07532235132817
