27
         -56.892045440082          0.000516722710
C           0.66119477230765   -0.87075151653953   -0.84411708578233
N           0.66306904893791    0.45943194108000   -0.63544759340453
C          -0.30646139544596    0.69687737711828    0.21161118498869
N          -0.95026347539405   -0.43079298899973    0.57087567377459
H          -1.72583801024538   -0.54648920703134    1.20321958066231
C          -0.34358914959529   -1.46487733771888   -0.09942584164525
C          -0.77258774721030   -2.81110642306968    0.04037099883154
S          -0.07176358712253   -4.15006503933084   -0.84364626708930
C          -1.29549121603022   -5.13950701787585   -0.01058539918145
N          -2.03078566089848   -4.43654219641693    0.81155580557340
N          -1.73535082401001   -3.17163285066000    0.84575867971462
N          -1.20313971259751   -6.45910996890710   -0.10293067498593
N          -2.20593456670876   -7.22332051615650   -0.02611175318702
C          -2.00518753518351   -8.54580295013129    0.15163304225200
N          -0.94205955083086   -9.11397820928311    0.71591837648648
C          -2.99798609372267   -9.54742248242144   -0.12386245027715
C          -4.27265381534153   -9.67817592584430   -0.66511022991243
N          -4.83829155145247  -10.86793623955874   -0.72713492171113
C          -4.17018329650123  -11.92459972778112   -0.27517661097435
N          -2.96392388525904  -11.94997024719079    0.25677426675400
C          -2.39641307988124  -10.75261600255758    0.32425977300576
N          -1.18122642679964  -10.41676962615492    0.82131037360443
H          -0.50552011245088  -11.02204156153000    1.26294530756354
H           1.36525856744972   -1.33754319360108   -1.50304322725972
H          -0.56417176651881    1.66937068214661    0.58051769186540
H          -4.84132325588240   -8.83859040144277   -1.03985397250565
H          -4.67712667360904  -12.87658837014041   -0.35317472716061
