27
         -56.871012826854          0.000453075873
C          -1.12915838364548   -0.31932021088820    0.32238126584529
C          -0.29537324755794    0.74285173653039    0.11572919351961
C           0.91793970674962    0.17008260244799   -0.32691302096662
N           0.83165534048703   -1.13562120288205   -0.38485640679824
N          -0.41140688641907   -1.43690472459797    0.00815243545699
C          -0.85088214816657   -2.72415913488565    0.06004482338738
S           0.16211409620504   -4.06417143484975   -0.42072331470742
C          -1.26721903169853   -5.05471519051488   -0.04192343713261
N          -2.27052788269268   -4.34647174671650    0.40417099377725
N          -2.03530437396200   -3.06486717869651    0.47061001660710
N          -1.12803406927164   -6.37631242954278   -0.00460240190181
N          -2.09350727702809   -7.16011646263029   -0.23810227329845
C          -1.89836444437679   -8.48232189752096   -0.01280372933591
N          -0.75079839384565   -9.09268236088959    0.26710186847061
C          -2.95350577397163   -9.45308456926583   -0.09024495312527
C          -4.32450359483686   -9.53694863680747   -0.31913005417312
N          -4.92148407427581  -10.71119039683902   -0.28263721942498
C          -4.19902642058604  -11.79674554498765   -0.02024343267775
N          -2.90433796699170  -11.86584262509262    0.21868541940935
C          -2.30169732943028  -10.68457348628469    0.17910476493499
N          -0.99164958739298  -10.39223744911016    0.37374861791552
H          -0.23573772515804  -11.03489014868534    0.55909113879414
H          -2.14268928440931   -0.39832064800394    0.65558343255080
H          -0.50868970393690    1.78179392246425    0.25725728746677
H           1.82932728109567    0.66488760039753   -0.59636992713729
H          -4.93790717688943   -8.67237754731837   -0.53101250144020
H          -4.73878164799326  -12.73353083482977    0.00060141398400
