23
         -46.266332626042          0.000455333579
H           1.01125195316202   -0.28908595386720   -0.39953496835996
C           2.03970209086103   -0.05540022062385   -0.21595049354327
S           2.92788296798692    1.04053036383720   -1.23826906076711
C           4.30286324540586    0.65883793627495   -0.17845376919052
N           3.97658367407317   -0.15554055742377    0.78669456772084
N           2.72196503947186   -0.53768767302116    0.75513792410989
N           5.40419780417448    1.39608024281675   -0.28163675192621
N           6.57846013530579    0.93888613204028   -0.22407096993017
C           7.58085710225218    1.84638526734354   -0.13002902755518
C           7.54788327094481    3.26059625473879    0.07734035330699
C           8.85811084286011    3.62926185760841    0.12180328325479
N           8.84457873626718    1.42287681114608   -0.20034048189108
N           9.59776594176458    2.49245286173023   -0.05165502182410
C          10.97272505541119    2.39154718749291   -0.07769011694888
C          11.70296143963324    1.24646436004572   -0.22944056907278
C          13.08915735745629    1.49799145850596   -0.21200165537861
C          13.38811039505271    2.81284800335409   -0.04955392528047
S          11.98256920646159    3.79299562044341    0.08791707959155
H           6.67434006641852    3.86945128609368    0.17819315215911
H           9.32783935188884    4.58268138470449    0.25847841230481
H          11.24664208555443    0.28172481785843   -0.34532896112645
H          13.83365625649207    0.72998065472996   -0.31557938469612
H          14.35211598110122    3.27806190417165   -0.00042961495711
