26
         -45.954896068731          0.000788136679
H           1.18892672404147   -0.54979296107080   -1.08140699360529
C           2.20068181897738   -0.31468628024620   -0.82206112291051
S           3.13984382997440    0.82523016588502   -1.75089157831370
C           4.44769698362148    0.42872029129307   -0.60724053425675
N           4.06984372933641   -0.42395686421079    0.30355527811652
N           2.82314044707527   -0.82391015220574    0.17342326390317
N           5.54066149606917    1.18130000461189   -0.61349041011996
N           6.72237801219685    0.73673108227163   -0.50370171747199
C           7.71417234458012    1.62732988487277   -0.31581567763044
C           9.04839444553362    1.23726352904757   -0.25292835107646
C           7.70734616615288    3.06110148932557   -0.12756049551761
C           6.70864703205232    4.02641510987288   -0.08615252221267
C           7.08139576680854    5.34066903996098    0.11422551840420
C           8.41920307621858    5.70140213719233    0.27215416190098
C           9.42806258176188    4.75841560078337    0.23582186822426
C           9.05797336422039    3.43689752310503    0.03475806129750
N           9.84034566952401    2.30160245627729   -0.04710989030778
C          11.26943018867852    2.28525823396215    0.07693921169232
H           9.44341406525421    0.24386407891963   -0.34673113525648
H           5.67479627056353    3.74610249021929   -0.20851165955946
H           6.32454641286118    6.10966458742951    0.15032848794175
H           8.67100448474098    6.73988583525891    0.42632336846081
H          10.46170307519310    5.04363417233034    0.35948871971120
H          11.72324944380165    2.92163735987898   -0.68669634711883
H          11.63381221498086    1.26698392696818   -0.04652907825484
H          11.56951035577953    2.65433725826560    1.06081957396102
