32
         -59.882211109619          0.000576441441
N           1.61572524133683   -0.06734254010748   -0.81203564678950
C           2.95782788739527   -0.11598806083024   -0.67001584975112
S           4.01538697075828    1.11660663661400   -1.35246881118584
C           5.33156150673919    0.17318703718040   -0.58043456569288
N           4.88561737738070   -0.85614434015433    0.06448134397251
N           3.58030568420020   -1.01543307256172    0.02495785899121
N           6.54999288105535    0.71253744405285   -0.58762248805244
N           7.58479091866710   -0.03003915875228   -0.47394727510432
C           8.76879503462924    0.59734986073776   -0.31397411907650
C           9.95992089701398   -0.10211879933866   -0.24390227811233
C           9.11219529181072    1.99705003903401   -0.16959462141023
C           8.36056678784855    3.16470582477940   -0.15705417782353
C           9.02282181295324    4.36560441346803    0.00445230802681
C          10.40687707183040    4.41022565727178    0.15401889346781
C          11.17395794198029    3.25997033426203    0.14400718685819
C          10.51420015493828    2.05196937871410   -0.02218407435753
N          11.00530949720839    0.74914853265848   -0.07212064368402
C          12.31978356224652    0.34077261888389    0.02633765971096
C          12.85253223442506   -0.92109515849202    0.08469416925806
C          14.25354486164512   -0.74110807348794    0.16557900374667
C          14.46744265051896    0.60020028606383    0.15092969636984
O          13.29676748508219    1.26608536852268    0.06608193375556
H           1.23702581929426    0.49783663305793   -1.55198399505727
H           1.11352792121395   -0.90325904499491   -0.56206384148882
H          10.09891110520867   -1.16188082380463   -0.31425825755518
H           7.28971932225699    3.11961251607669   -0.27248264471194
H           8.46197578454947    5.28813417872015    0.01654895748865
H          10.89441383812769    5.36529588960022    0.28100753781551
H          12.24369835165505    3.30912934908450    0.26125610952262
H          12.32685434802506   -1.85221134987559    0.07778424574468
H          14.99344858386782   -1.51170511586759    0.22635408896992
H          15.35974117414108    1.19081353948565    0.19380229615407
