23
         -47.551850218599          0.000563009969
H           1.18188618637210   -0.57629874944758    1.14749780693453
C           2.19033459302236   -0.32016626587512    0.89460813955577
S           3.15336315409594    0.72273060387731    1.89834801334338
C           4.43696893891630    0.41385186799276    0.71119367342198
N           4.03392703104871   -0.34481028934519   -0.27232503258685
N           2.79134193471212   -0.73711119411497   -0.15982914672073
N           5.54208111167485    1.15153079101783    0.76650741158387
N           6.69440571506766    0.70823969130049    0.50099847688169
C           7.67878034425519    1.62712568823162    0.35200961347164
N           8.92977523858994    1.21100253888418    0.27363871495192
C           7.61328926672360    3.06555341131860    0.18535420960493
C           6.60575168785340    4.02371671762122    0.16639501145596
C           6.97945879626588    5.33754162387220   -0.02769650328538
C           8.31673822429628    5.70398711238428   -0.20600723962134
C           9.33288165793144    4.76955122893340   -0.19678905766512
C           8.95350338168344    3.45135815197087    0.00231767501933
N           9.70025294525884    2.28269401278169    0.07085500579824
C          11.02087054889247    2.21587490620468   -0.04529867272119
N          12.16035943874281    2.21363997637683   -0.14835386125031
H           5.57475259262230    3.74010022131894    0.30282716063146
H           6.22291996115832    6.10707543638101   -0.04351726412467
H           8.55911661206374    6.74463131545666   -0.35696193502498
H          10.36672063875347    5.04265120285911   -0.33833219965511
