30
         -64.865481734159          0.000541838048
C           0.94627798649081   -0.91865917018586    0.04773327700063
N           0.84027977975977    0.42287642723163    0.02021346516369
C          -0.44210220913249    0.68761500856746    0.01474903649318
N          -1.18903323497733   -0.43325699885999    0.03679567440407
H          -2.19194794467377   -0.52920379854619    0.04092260540846
C          -0.31434627541600   -1.49221498859461    0.05873406466125
C          -0.75722177037448   -2.84102630606050    0.08029389504792
S           0.32388608742961   -4.21710998926059    0.06092453008920
C          -1.16261500023766   -5.18873707798957    0.04043266399207
N          -2.24244434966505   -4.45664590346450    0.08353696729275
N          -2.01965378757865   -3.17610065544457    0.11715065697684
N          -1.04901338248457   -6.50875875709092    0.19088434147387
N          -1.94268754145222   -7.29119095382895   -0.23727911087362
C          -1.81494408621829   -8.61975639371221   -0.02968788541941
N          -0.67483896319804   -9.28327431092838    0.04103633364077
C          -2.92663153363206   -9.53125580554840   -0.04004678651305
C          -4.31961287607976   -9.52271290722062   -0.08327757014686
N          -4.98614661937874  -10.65153664514508   -0.06195440918552
C          -4.30791836939706  -11.81417556448432    0.01323186248765
N          -5.04217305465882  -12.93291042865216    0.02794317391824
H          -4.58127480924358  -13.82232159382890    0.08961402842961
H          -6.04231421795806  -12.86109586955492   -0.00887158217740
N          -2.97767014586769  -11.95515023738870    0.07377304162428
C          -2.33187326369777  -10.80883720279817    0.04532045373341
N          -0.97006394640594  -10.60441740735128    0.07282967027228
C          -0.03408684931796  -11.54536322846267    0.08211430132022
N           0.76031004729435  -12.36822178678282    0.09906720971733
H           1.89956206072027   -1.40747228173523    0.05918526531412
H          -0.85623215476420    1.67578856451263   -0.00476634367984
H          -4.89676957588497   -8.61058373739137   -0.14079283046614
