29
         -60.856426385677          0.000984725258
C          -1.02189659432484   -0.29199790364189   -0.63167336140053
C          -0.31172433725409    0.80598514128357   -0.11048872757740
C           0.56770496268782    0.29060161584583    0.79818707671440
O           0.45238086457707   -1.03957689653517    0.87480277839586
C          -0.51657368371702   -1.40502908106854    0.00575550104120
C          -0.86893109248333   -2.77720199761459   -0.12507015949647
S          -0.10457324431901   -4.04684484814487    0.81859562512733
C          -1.23649395512025   -5.13287052790993   -0.01324099913886
N          -1.99207020365863   -4.50193767149823   -0.87868671113946
N          -1.77974943006828   -3.22182781917876   -0.94260024079479
N          -1.06758890059634   -6.44048881247988    0.11910223538982
N          -2.02798382566777   -7.26485231849457    0.07033039683043
C          -1.75784215091731   -8.57521476003991   -0.05489249152025
N          -0.59947327407725   -9.12347102095432   -0.44684198693411
C          -2.73962504173125   -9.60853344860280    0.13456947561737
C          -4.07538642987588   -9.65537063659877    0.52466726362955
C          -4.68029338440413  -10.89117829243097    0.58739757830802
C          -3.98908773546646  -12.07043836099237    0.27762881923873
C          -2.66727820773843  -12.05758335918832   -0.10814709009566
C          -2.05816483667979  -10.80987141388933   -0.17358034146572
N          -0.80573969514533  -10.40256432190555   -0.49972582961178
F           0.18501752109283  -11.22570116733575   -0.95299946929553
H          -1.79690324032208   -0.29139237997672   -1.36832774327761
H          -0.43483109673136    1.83667639754581   -0.37166084408418
H           1.29873652334547    0.75564518202464    1.43066479983201
H          -4.60347030002197   -8.74612654800805    0.76049599297582
H          -5.71623529634315  -10.96183731650227    0.88196436598119
H          -4.51019840318183  -13.01312918642111    0.34346073205689
H          -2.12830551185612  -12.95995824728638   -0.34842664530918
