30
         -60.406232618102          0.000868763150
C          -1.28731722917918   -0.32598744217029    0.02572774977954
C          -0.40028579694282    0.76578792879983    0.05263954683026
C           0.85597857424948    0.23045620481798    0.08464258555275
O           0.80781327433380   -1.10542551865608    0.07932949478016
C          -0.49721858900861   -1.45568269895781    0.04346424735599
C          -0.87000137743185   -2.82970113639139    0.03056838701139
S           0.28849674573121   -4.13602550992353    0.05915311675372
C          -1.13799716470044   -5.19811960896673    0.02002916007381
N          -2.25212830873221   -4.52624978675251   -0.00808145095473
N          -2.11263316205449   -3.23525011005281   -0.00246602060880
N          -0.91166689454005   -6.52130693687883    0.02840521904876
N          -1.94029464228980   -7.28608917139173   -0.00354556717902
C          -1.71829883864905   -8.61746273766554    0.00808696569310
C          -2.77650029315372   -9.57113209421905   -0.01763995257012
C          -2.15619187636869  -10.78567976581467    0.00411683517142
N          -0.53657116034176   -9.24930988732294    0.04283013790488
N          -0.81392434138575  -10.53951126337815    0.03971786592548
C           0.20934810646552  -11.46146322376070    0.07011438242022
C           0.24527724664702  -12.83743406273850    0.07721517830681
N           1.53356108326519  -13.24954789578682    0.11188854896170
C           2.26727234520941  -12.17070513404274    0.12629232209216
N           1.51238004751462  -11.04856810954673    0.10184493460690
H           1.78818007241214  -10.07849507517141    0.10480326897643
H          -2.35637782888254   -0.31264851182917   -0.00275488922571
H          -0.65555414113274    1.80532395099745    0.04900919320981
H           1.82635303469547    0.68588184418911    0.11200393886908
H          -3.82139197806045   -9.34865026358490   -0.04681529364586
H          -2.53727694647497  -11.78554171328313   -0.00261132254063
H          -0.56129417357898  -13.54076641720703    0.05966310543395
H           3.33764421238414  -12.16296585331121    0.15375831196658
