30
         -60.408954210762          0.000657755113
C          -1.29588661055449   -0.29714473061550    0.00431039023306
C          -0.39451492255366    0.78305979517714   -0.00403933215860
C           0.85548557875644    0.23148790295611   -0.01179985651877
O           0.79008653742709   -1.10288320754115   -0.00860321451302
C          -0.51947067633304   -1.43692615068568    0.00103164349380
C          -0.90172277314474   -2.80754473859164    0.00634184082313
S           0.25026542153074   -4.11660377892072    0.00139876300867
C          -1.18125535982219   -5.17362209048494    0.01348677998674
N          -2.29414271393239   -4.49606424808851    0.01937421504971
N          -2.14928287678200   -3.20749417050436    0.01544110698182
N          -0.94957259067307   -6.49188995788961    0.01391197552343
N          -1.96297422138168   -7.27680628330592    0.02509079224269
C          -1.70316592649601   -8.60077288981575    0.02480632430426
N          -0.50963119401625   -9.19699094966912    0.01599290704436
C          -2.73242294785761   -9.60190876656195    0.03535539783586
C          -4.11838353331416   -9.72625126562793    0.04704434641162
N          -4.66811164753294  -10.92484862665871    0.05417685044776
C          -3.88086331869003  -11.99732035923664    0.04995414317212
N          -2.56371666199739  -12.03128144349806    0.03891144361097
C          -2.01086432969891  -10.82278297353912    0.03182181565786
N          -0.69167191912650  -10.50572106631456    0.02021389848727
C           0.40959470914005  -11.42314096717981    0.01337536478370
H          -2.36504754339526   -0.26947532697158    0.01175130559257
H          -0.63621344735747    1.82576142548645   -0.00430165084189
H           1.83205821367547    0.67441053139752   -0.01946219528838
H          -4.78303075467752   -8.87375620630040    0.05084841576967
H          -4.38289460347985  -12.95521640223868    0.05583070029558
H           0.00273151719724  -12.43216981575154    0.01695420586962
H           1.03176599140194  -11.26379427678163    0.89494474564169
H           1.01958260368820  -11.26499896224376   -0.87685312294731
