26
         -49.924918921426          0.000418722429
C           1.38871816909873   -0.00867706282407    0.07841348457000
C           2.86629332568646   -0.04609544890870    0.07087324477448
S           3.85333351212064    1.39341980792779    0.07122467277173
C           5.23235125585064    0.27235359056755    0.06011860338312
N           4.85440941414754   -0.96876669768783    0.05730110991568
N           3.56079639001132   -1.13940488265203    0.06319136794055
N           6.45668630536800    0.82561188728344    0.05503515679900
N           7.46826445547053    0.03893818883281    0.04851175405426
C           8.66635600090451    0.66263879204452    0.04203075814922
N           9.78259502348012   -0.05811222295207    0.03672746651199
C           9.00378479393876    2.06584424314080    0.03878858113132
C           8.40839339012763    3.32316021836203    0.04057823306992
N           9.16341247310581    4.40530550521127    0.03544555275213
C          10.48571244885992    4.26966372714523    0.02847727540390
N          11.18246082610307    3.15032616951884    0.02583660776083
C          10.42080262639753    2.06212832092920    0.03113446381362
N          10.81773101450873    0.76296162352340    0.03034259251662
C          12.16715967832160    0.28009015951654    0.02380315829263
H           1.02987270798009    1.01621554543606    0.08451379092622
H           1.01357827221358   -0.53149548712280    0.95714418136664
H           1.00483600557438   -0.52404140227500   -0.80095069899144
H           7.33663549038399    3.46459365835161    0.04611499345268
H          11.05762595665671    5.18763689741172    0.02447997364955
H          12.82964688962585    1.14314900344835    0.01853331038607
H          12.33834454168135   -0.33277085159572   -0.86185574246805
H          12.34818903238253   -0.32942328263295    0.90982610806732
