26
         -50.180851813806          0.000799404324
F           1.53064509840606    0.14816401146506   -1.01851916807231
C           2.81661550302998    0.11938666733056   -0.74685566096825
S           3.96304138597748    1.02108394691531   -1.72983009902233
C           5.17112570006153    0.30787239857365   -0.62388512508934
N           4.63541488784976   -0.44122457936911    0.29774836568114
N           3.32320872864106   -0.53742318746386    0.22411876673617
N           6.40739339263523    0.78307486314533   -0.65902888278768
N           7.45799084796685    0.08158670546102   -0.55359208412356
C           8.62648277761447    0.71817124666786   -0.37226578119010
C           9.83641676811374    0.02960681795025   -0.30737361615599
C           8.95172977882502    2.11541166331116   -0.18476239381445
C           8.20349164664059    3.28536980187011   -0.14821459788235
C           8.87049296001944    4.47810674500579    0.05158974298558
C          10.25462884176955    4.51901784572353    0.21454540587107
C          11.01785461548125    3.36759552133924    0.18267055961366
C          10.35192936251901    2.16810044849133   -0.01953141949723
N          10.85038311768743    0.88112506143422   -0.10008078719087
C          12.23681418788976    0.53550789749972    0.02859299182708
H           9.99008703050143   -1.02852082140896   -0.39975302675724
H           7.13330548998206    3.25215694810888   -0.27411304345014
H           8.31235054458077    5.40152347584090    0.08321473166562
H          10.73977762273358    5.47091215741023    0.36906288221585
H          12.08881319691270    3.40582406193244    0.31053685199544
H          12.82977404089370    1.06977981380110   -0.71717798041368
H          12.36056688063360   -0.53582365436204   -0.11913340012205
H          12.60432559263420    0.80306414332548    1.02229676794533
