23
         -46.265863233279          0.000418199001
C          -1.10231909720725   -0.35843370624126   -0.38371027393738
C          -0.41039853033413    0.84883529744419   -0.20076538955399
C           0.81899175333863    0.67130169165330    0.35888096018431
S           1.16218062509920   -0.97847138456425    0.67502998999110
C          -0.38425313004952   -1.45096876677377    0.04323151927280
C          -0.80199022467117   -2.80932347017755    0.00153384547401
S           0.16539167570168   -4.14761020450169    0.62354555175770
C          -1.21421682065197   -5.16209581575153    0.16084954481374
N          -2.17610885007285   -4.47402699622591   -0.40445785306487
N          -1.93815824953900   -3.19901850223717   -0.49609936587115
N          -1.06108741161034   -6.47705037284674    0.16870562839874
N          -1.96630930010389   -7.30009731905091    0.46681614088770
C          -1.74587956511326   -8.61417260601958    0.20491630001137
C          -2.60982766432741   -9.64840608713982    0.65738799893850
C          -2.06379760711053  -10.79705580656947    0.15383676854879
N          -0.75207596070915   -9.13213404546531   -0.52849969161763
N          -0.96303097317020  -10.42741993555964   -0.54597408168575
H          -0.33274056139156  -11.02664610446928   -1.05906304840993
H          -2.08481988659331   -0.44990861403397   -0.80767785552204
H          -0.80528117178910    1.81137223055937   -0.47192478401526
H           1.54946111526390    1.41583169050387    0.60634346186724
H          -3.48284357208464   -9.52656767385110    1.26162186601403
H          -2.36570659287452  -11.82135349868085    0.23314276751785
