30
         -56.438519323957          0.000781700549
H           1.06809527850952   -0.45133143168964   -1.06039880626375
C           2.09312058569584   -0.22000961641782   -0.85498798097321
S           2.96485481800603    0.97532145404806   -1.77590957686087
C           4.34308944166122    0.53082625053803   -0.74024189599721
N           4.02786639319256   -0.37314603476868    0.14546094526675
N           2.77948707524109   -0.77581269837847    0.07253258393818
N           5.43207068617323    1.29018469378407   -0.77746203023699
N           6.61266928136216    0.83464959865382   -0.67934366589509
C           7.61204130393232    1.72228411540767   -0.50551515336781
C           8.93777917083069    1.32595758229655   -0.44791540016495
C           7.60950073141745    3.15847108720102   -0.32375888151788
C           6.59972319810996    4.11075306522298   -0.28467452473240
C           6.95548761090735    5.43074454060483   -0.08995052722471
C           8.28897227779478    5.80172899893961    0.06468006601048
C           9.30944126989429    4.86948696612567    0.02863494552774
C           8.95740058624224    3.54332637642746   -0.16885992549020
N           9.74582237153194    2.39581837487738   -0.24769954774828
C          11.11924050061124    2.31158150576721   -0.13038102410410
C          11.93589884555628    1.21250513327509   -0.06145285929680
C          13.25199852602579    1.72052684795076    0.04519739964719
C          13.13987044298725    3.07468317362829    0.03318881154825
O          11.84681180144155    3.44268728267775   -0.07376843361331
H           9.32593658613577    0.33178631983442   -0.54326331803802
H           5.57003860640003    3.81530403756809   -0.40379481612384
H           6.18971512898577    6.19096132320823   -0.05551454204582
H           8.53375021996652    6.84200145757951    0.21661242365195
H          10.33640942471212    5.17064763841515    0.14948872018675
H          11.64741163359814    0.18287438018990   -0.07611270734411
H          14.15289069812954    1.14823028496547    0.12128620092375
H          13.86510550494699    3.86051729206692    0.09292352033915
