37
         -68.922510360984          0.000438853553
C          -1.26336716005682   -0.45021547814277   -0.66990305056433
C          -0.69021346472486    0.75291269915040   -1.11162913561201
C           0.32122925802517    0.55776942505113   -2.00240529263680
S           0.59900233098816   -1.10413980402230   -2.32314909829284
C          -0.67576160577412   -1.55675870324110   -1.23551198220661
C          -1.02849858380623   -2.91480796214206   -1.00164714606677
S          -0.24655153322300   -4.27959179747466   -1.80238763603141
C          -1.40145778101429   -5.27683901374621   -0.89524800968390
N          -2.17650956648921   -4.56565823725337   -0.11790914264108
N          -1.96326926540812   -3.28139403481532   -0.17776800448745
N          -1.23634953851047   -6.59383158521237   -0.88653864530021
N          -2.21268157039711   -7.40392975335992   -0.79044185230576
C          -1.93175404824938   -8.69639503720225   -0.53691178861461
C          -2.92962999482048   -9.65758973381825   -0.48305798616280
C          -0.69356342619253   -9.38231170593826   -0.23503531363810
C           0.62883198105422   -8.96913157750747   -0.12969132141990
C           1.58120357292559   -9.91221097820485    0.20127070078723
C           1.23267903492208  -11.24081791984151    0.43916893913932
C          -0.07604283378188  -11.67324185096308    0.33856835391586
C          -1.03137346770149  -10.73348027888434   -0.01514800683031
N          -2.40520119823579  -10.86879746126489   -0.17877120784770
C          -3.13329423442573  -12.03825719954857   -0.04666856860646
C          -2.84980340546029  -13.34862080138434   -0.34744163737724
N          -3.91419298947952  -14.12851038046619   -0.03896587479570
C          -4.82803187523223  -13.33357104871055    0.43516517982459
N          -4.41254015366012  -12.04209723398761    0.45372447516521
H          -4.92059619407077  -11.23885419903205    0.78693064894930
H          -2.07268434768611   -0.52871141726046    0.03165599249169
H          -1.01333239230712    1.72460718325721   -0.78371978245107
H           0.92491436432750    1.29452709736074   -2.49418930036173
H          -3.97653324222095   -9.51945147796672   -0.67384587071178
H           0.89042563895506   -7.93758617446055   -0.30212400711727
H           2.61622292338691   -9.61772404398756    0.28664674464704
H           2.00157252206532  -11.94809307668744    0.71088236378805
H          -0.34186253000482  -12.69845483788851    0.54002838593722
H          -1.96684244248955  -13.76698394892940   -0.78378773359532
H          -5.79723278122128  -13.64235765146839    0.76986561071547
