24
         -46.836106377190          0.000969280110
H           1.08772267290640   -0.36323088718069   -0.28095187723625
C           2.12384058715953   -0.15172403994151   -0.11445770907669
S           3.00276535837479    0.96747075904418   -1.12402965804749
C           4.39733793194061    0.53478983113982   -0.10841777301542
N           4.08469715837028   -0.31138264769177    0.83333363877534
N           2.82278941136443   -0.67845960927125    0.81876401666006
N           5.50606696406987    1.25913275947805   -0.20785850269219
N           6.67741759140948    0.78763492800960   -0.21993203390926
C           7.70271820965451    1.66623942414125   -0.11753072108292
C           7.71075332091958    3.08659811777867    0.08335576030596
C           9.01015763463299    3.46811581640673    0.13347782385126
C           9.03131433044834    1.26391827154979   -0.17710182000579
N           9.81144610058961    2.35567910308249   -0.02434562524932
C          11.19245918862000    2.36138134791051   -0.02573394676242
C          12.09453993053579    3.38053527103401    0.11980994763348
C          13.37046119636679    2.77367366737271    0.02945344173355
C          13.14841431021527    1.44665925226090   -0.16206037733841
O          11.82721697277280    1.18596811646248   -0.19714574052261
H           6.84396464268318    3.70881637108937    0.17251596365114
H           9.44082271816922    4.43923352807877    0.26978961363145
H           9.43987115367241    0.28347697933557   -0.31294798524823
H          11.88729084511782    4.41881066076835    0.27081648060588
H          14.31774948940181    3.26620321973704    0.09877363184161
H          13.81158228060184    0.61446975940771   -0.28354654850136
