24
         -46.007532894139          0.000436770707
C          -1.14438604545500   -0.33646060688709    0.00538231969228
C          -0.41336087080491    0.86191318337689   -0.00054252760124
C           0.93330098253832    0.65592444361925   -0.00567139416000
S           1.34124678133311   -1.00890586535223   -0.00350256747786
C          -0.33747936272864   -1.44938430099352    0.00469049820657
C          -0.76497827456949   -2.80701850115504    0.01106291688649
S           0.33018917040456   -4.17488560202482    0.01052713671822
C          -1.14402455527705   -5.16547982365008    0.02239034859182
N          -2.22433205810910   -4.44350011764445    0.02541169187675
N          -2.02227600162323   -3.15722865360701    0.01920281021129
N          -0.97530707768835   -6.49841120207625    0.03098774661229
N          -2.03328419200882   -7.22489891113662    0.03656346573442
C          -1.83198686275528   -8.56165290801555    0.04945242072503
C          -0.62506002431456   -9.33490446196211    0.05503454734590
C          -0.99737754403834  -10.64039902777465    0.06895428356963
C          -2.88746286891321   -9.47156146956618    0.06073471387124
N          -2.36676625907713  -10.70890027138161    0.07256236744535
H          -2.89913174605895  -11.56418469532987    0.08273953671158
H          -2.21597487418501   -0.40737156812630    0.01011272802142
H          -0.86434620039887    1.83786933801071   -0.00091050100271
H           1.71631726132742    1.38810328765927   -0.01060590114851
H           0.36760773442700   -8.93451425119858    0.04861782141523
H          -0.40220616057201  -11.53242379906348    0.07665140624022
H          -3.94120095145242   -9.27984421572067    0.06141413151455
