22
         -44.942529923188          0.000948380068
C           2.72240186496308   -1.12655495791617    0.14791364205319
O           2.95460716926295    0.26834525763589    0.00401803715985
C           3.39041931763142    0.88439632779981    1.08368099619209
S           3.74942518022698    2.60134943605895    1.00795787670112
C           4.22003190085567    2.39819946299138    2.71983130120558
N           4.05115293700662    1.18607769763094    3.14724366650083
N           3.58189003886683    0.34993028795423    2.24461262334705
N           4.47144095801457    3.49715306410547    3.43468279441240
N           5.27524277460681    3.48032832218533    4.41482476696930
C           5.31382848503528    4.60498256519747    5.17938084753991
C           4.53181340263881    5.81128538458173    5.11212419924845
C           4.95529705034017    6.61762071988911    6.11113333083953
C           6.18730648854557    4.74623094650912    6.24041811472739
N           5.96735670076456    5.96825162079257    6.80253949043684
C           6.61630825750572    6.46956464221408    7.84523981441989
N           7.17299988261466    6.90998927667656    8.74274617131773
H           2.34504462243830   -1.46374826924736   -0.81477478852481
H           1.99032031321302   -1.31102508130730    0.93697020471381
H           3.65085854381819   -1.64354261162620    0.40020865581285
H           3.76368688597471    6.01086415320107    4.39329251760384
H           4.64033300872089    7.59854320601611    6.40918342927250
H           6.92742421695377    4.06846854865699    6.61601230804962
