25
         -51.013769936902          0.000445380905
C           0.91859349573551   -0.88635680881245   -0.00430332833821
N           0.79308444026372    0.45438118806301   -0.00834136863293
C          -0.49305225257340    0.70007468638767   -0.00261977162737
N          -1.22284726721349   -0.43189668724239    0.00510314304358
H          -2.22396116557476   -0.54515341768019    0.01077378912099
C          -0.33273211909743   -1.47791463630884    0.00416266857042
C          -0.76373946911240   -2.83169690932770    0.01220734963278
S           0.31710818255710   -4.19885577906355    0.00871415820914
C          -1.17010691754136   -5.17971760811829    0.02430750723487
N          -2.24363462075297   -4.44977077622633    0.03072107808456
N          -2.02947642393521   -3.16669307220326    0.02416226351209
N          -1.01896722905054   -6.51469782112905    0.03385268427946
N          -2.08359854612934   -7.22646457156209    0.03736674386217
C          -1.89112429638137   -8.56916465609497    0.05205132415779
C          -0.67873186527178   -9.34696755524808    0.05679761407252
C          -1.04007129617939  -10.64898363118314    0.07227412978494
C          -2.94578096658298   -9.46326021758183    0.06531883879035
N          -2.42605313879926  -10.72283779688150    0.07807029856530
C          -3.12474241702470  -11.84995911681940    0.09439225657017
N          -3.71878744136989  -12.82784517551523    0.10918920736882
H           1.87926264021816   -1.36058478304643   -0.00732216912083
H          -0.92230846727141    1.68198303266216   -0.00384007970892
H           0.31327932628019   -8.94423740489431    0.04842587607431
H          -0.45201798579808  -11.54593226559571    0.07990655557012
H          -4.00128419939497   -9.27892821657814    0.06762923092387
