28
         -53.250747501020          0.000696514869
C           1.81122792304978   -0.78830762757593   -0.25966387220582
O           2.78251704315079    0.14900028853461    0.17891468546506
C           3.30734015311747   -0.09710937532441    1.36610819254290
S           4.53963640550654    0.98502520018416    1.99930448828534
C           4.55406210563625   -0.13641932149718    3.39447635433788
N           3.69916345826423   -1.10200510677126    3.27051035683545
N           3.00091295174249   -1.07367414719933    2.14864467079653
N           5.22580394995029    0.23431651125796    4.48365631062971
N           5.80175518942897   -0.60055137017216    5.24574470359645
C           6.28059106594899   -0.12411342335926    6.41964638103409
C           6.19162551591585    1.17770502457648    7.01523907874093
C           6.83375103483225    1.10893780442996    8.20627552575940
C           6.98594437331596   -0.92025998453412    7.31250845191612
N           7.31804233658033   -0.17199504874750    8.38679984527767
C           8.02185965915695   -0.61324713276472    9.49062165082719
C           8.48556515392102    0.11789141986383   10.54815449511458
C           9.16144608877555   -0.67721702232875   11.49769824552435
C           9.20418840165102   -1.98898353857074   11.15631394108519
S           8.41697177047469   -2.29880459016584    9.65965323832344
H           1.48112573193962   -0.43897774439449   -1.23512279654978
H           0.97469691473083   -0.82495069118328    0.44053549098207
H           2.24936342588533   -1.78509035420114   -0.33571236700449
H           5.70622170292414    2.02850318386577    6.58290254809343
H           6.98308868984487    1.86445716687364    8.95055849347085
H           7.25456362931640   -1.95393712677619    7.22622596995581
H           8.36185339993930    1.17972415690189   10.65101358364467
H           9.59757392678854   -0.28153654131549   12.39673254705437
H           9.65126799821197   -2.80414060960593   11.68869978646696
