26
         -49.899899548581          0.000322504825
C           0.79094132970974   -0.87779087005754    0.62911195626074
N           0.76278376299072    0.45848806707322    0.43853599938298
C          -0.35942854681466    0.71227292445405   -0.18251123088735
N          -1.07585670468650   -0.40838299906772   -0.40890278517807
H          -1.96802492349238   -0.51359288552058   -0.86406978211887
C          -0.35102536979988   -1.45362470389171    0.10770950138095
C          -0.81407890539723   -2.79743701589557    0.04043916752958
S           0.08204204567477   -4.15830251355729    0.70435884591874
C          -1.29832347507428   -5.13706054281392    0.14111288617377
N          -2.20784773410857   -4.42159150404622   -0.46133695968728
N          -1.93239688702643   -3.14259100037359   -0.51935230854962
N          -1.17180277337721   -6.45687150711515    0.13843945837932
N          -2.10662439100973   -7.26831608765204    0.40550422409790
C          -1.89035316565596   -8.57369727499603    0.13473281078797
C          -0.80074111505990   -9.23336401886828   -0.51147314557625
C          -1.10513053616794  -10.55928972899553   -0.53900649709033
C          -2.81338059226148   -9.56903539812376    0.47281912424945
N          -2.32068747314866  -10.74257482380867    0.06482343149033
N          -2.96616933594863  -11.96830101248321    0.12995338384721
H           1.61270672215743   -1.35723947193895    1.12148000336992
H          -0.68113508709030    1.68987055141996   -0.48139073308773
H           0.07938023638178   -8.75864719329825   -0.89365930097050
H          -0.56159866412820  -11.39405876163396   -0.93517234596753
H          -3.76102793880193   -9.47189425030904    0.96308927936365
H          -3.75318493298662  -11.92091320458031    0.76920263122907
H          -2.32269554487855  -12.70334477391936    0.41030238565228
