27
         -49.180689908371          0.000416534748
C          -1.15840430402086   -0.35044325862850    0.02073975988214
C          -0.42658662331782    0.84757833531456    0.03917098158861
C           0.91940303615249    0.64071800643739    0.07009348540106
S           1.32572627364244   -1.02484064605394    0.07734561058401
C          -0.35285110211032   -1.46389549522332    0.03804652826191
C          -0.78044698809872   -2.82178182708375    0.02806649800562
S           0.31623148820971   -4.18891742373120    0.05370382791330
C          -1.15720074631736   -5.18128297208619    0.02264508549542
N          -2.23779842546994   -4.46016508451641   -0.00253511222551
N          -2.03654086456567   -3.17293695914086    0.00029965040907
N          -0.98541359523865   -6.51288865976507    0.03137156186391
N          -2.04300397118915   -7.24315724798545    0.01235474462252
C          -1.83969337941223   -8.57665571102643    0.02562000266609
C          -0.63501694540399   -9.35160540127892    0.05581424046767
C          -1.01409020674817  -10.65525441026705    0.05943278612660
C          -2.89440883463913   -9.49126641582395    0.01248807591357
N          -2.38476986577935  -10.72971426886274    0.03326776088019
C          -3.12923911845578  -11.95637978603666    0.03080537097499
H          -2.22977592278055   -0.42039779421092   -0.00404185776194
H          -0.87686067239609    1.82386172604291    0.03007872622945
H           1.70294217939823    1.37208537486986    0.08925353789640
H           0.35959728746830   -8.95588378752316    0.07181816621819
H          -0.42190814914963  -11.54969563434623    0.07867776329689
H          -3.94789971082882   -9.29653982489893   -0.00952268472975
H          -4.19470843242443  -11.73649277069606    0.00723372579653
H          -2.90668627493719  -12.53872408906132    0.92773096266550
H          -2.87113613158736  -12.55691397441765   -0.84428919844247
