31
         -59.321949001435          0.000299443407
C           0.89585666079628   -0.84108703256255    0.30864731985139
N           0.75399510607327    0.49964338070266    0.30485088062144
C          -0.52920057350791    0.72882801675222    0.18862456669983
N          -1.24115284504510   -0.41309652644548    0.11534639532258
H          -2.23625466975399   -0.53990602508227    0.02324072488099
C          -0.34114802901046   -1.44743991286863    0.19080689629866
C          -0.75327900341519   -2.80800286066466    0.14426669311515
S           0.34682170034813   -4.15987578616201    0.23443041908491
C          -1.11941822386105   -5.16436758814450    0.09659234024929
N          -2.19942271247142   -4.45138711684361    0.00400450429082
N          -2.00560153466569   -3.16152703701730    0.02944302203892
N          -0.94415620707616   -6.49600234907529    0.10655081458888
N          -1.99893190274685   -7.22332926504612    0.00874513808642
C          -1.80169783193418   -8.55815123899556    0.02381488147613
C          -0.60024989874928   -9.33875180763813    0.12822604994674
C          -0.97375093969021  -10.63985928383430    0.09527666426054
C          -2.85271368103123   -9.46351634483601   -0.06827030886129
N          -2.34931343966618  -10.71521672080327   -0.02432153598901
C          -3.08569232786957  -11.88156819759170   -0.08601673963871
C          -2.63726033378699  -13.17237911901920   -0.04605113572063
C          -3.68732204654868  -14.11041450314683   -0.13346081943741
C          -4.90892100113468  -13.53055255694937   -0.23776807677736
S          -4.81774757998589  -11.81381634521795   -0.23279345655373
H           1.85818220919121   -1.30402467699968    0.39397508574003
H          -0.97034637184163    1.70490514213144    0.15485098478338
H           0.39141718774162   -8.94455387866807    0.21450959464363
H          -0.37637317651228  -11.52738836344935    0.14699622752188
H          -3.90211866397862   -9.26691608896438   -0.15922615690637
H          -1.60432686245947  -13.45271327629932    0.04183725137042
H          -3.53253686380470  -15.17387615552482   -0.11856892950987
H          -5.86789614360317  -14.00128648173596   -0.31812929547768
