21
         -44.584556071790          0.000570110493
C           2.41205073894769   -1.00003773447140   -0.12286463688205
O           2.95996034261524    0.28368942218232    0.14129148461408
C           3.46990577974869    0.44474310709196    1.34690306719686
S           4.21204813075033    1.98155779318579    1.76488910734559
C           4.53502152564740    1.19595331053098    3.33789174795637
N           4.07648246933946   -0.01414663015678    3.39845241955348
N           3.47736036432444   -0.42695208675532    2.29768296351718
N           4.97965028145327    1.96071269840476    4.33698341706927
N           5.73121366100248    1.50344870351267    5.24921551946635
C           5.96266604937304    2.32214321868531    6.30893411223419
C           5.44783898816983    3.61991574232384    6.61858832168762
C           5.98864450983979    3.99370057697534    7.81143338904565
C           6.81160208277056    1.95772086869894    7.35276910566689
N           6.79418474166109    2.97646943100816    8.21550606591731
F           7.50409918348442    3.00083162506411    9.37964320767674
H           2.01641772564699   -0.94947628136335   -1.13475769980202
H           1.61874218485041   -1.22970696320519    0.59140343419096
H           3.18552359940065   -1.76749507564795   -0.04952092877508
H           4.76641093654574    4.18055382043455    6.01239485192348
H           5.87360877665260    4.88012922698681    8.40137915698948
H           7.38563792777552    1.06743522651772    7.50351189340934
