20
         -41.144508089553          0.000761393892
N           1.37981808117529    0.21474552878618    0.06833371673895
C           2.71886804023614    0.15560191463524    0.01029623100278
S           3.73248777572024    1.58425952176707    0.03267788845850
C           5.09525434539879    0.41493308638296   -0.00447203454480
N           4.68276748612214   -0.80936663114735   -0.03078474320239
N           3.38654134085046   -0.96638271905249   -0.02498923871874
N           6.32722671281445    0.93848721715022   -0.00605794758534
N           7.32543607548393    0.13565854656949   -0.01876201502228
C           8.54744668653485    0.73124333381272   -0.02275262568815
C           8.91151457306126    2.12450690021241   -0.01885397758600
C          10.26159158312366    2.18554313687459   -0.02453328471992
C           9.72281135461436    0.00635953280092   -0.03100277867545
N          10.76173013265668    0.89157629078501   -0.03189632899950
C          12.04879450723518    0.57710753735112   -0.03823091760233
N          13.16357556248873    0.31738214923440   -0.04291632619445
H           0.90978271698935    1.09061714322724   -0.06658409921597
H           0.87033237091217   -0.64138055816919   -0.06406787677000
H           8.22092269180557    2.94264508024148   -0.01240925918444
H          10.93159859618154    3.02307438326567   -0.02405964618119
H           9.87577936659522   -1.05392139472759   -0.03560473630933
