26
         -50.278834076139          0.000854455569
N           1.49146233978237    0.16096707294218    0.14611542289537
C           2.83514716208670    0.09528521285857    0.08566687287551
S           3.84936492930024    1.52677449875348    0.10861766897110
C           5.21276788796303    0.35625912095612    0.08874704116511
N           4.80147105248476   -0.86636869410782    0.06397284939167
N           3.49988552924874   -1.02371088249753    0.05945584455487
N           6.44629731897219    0.88142332006816    0.08498794454477
N           7.43767527967756    0.06574804002260    0.10071746215615
C           8.66834550859878    0.62898125183905    0.08586219789838
C           9.08197782717728    2.00386977624265    0.06476422477931
C          10.43659933658645    2.00731121054402    0.06141263640170
C           9.82801030669512   -0.13473587292371    0.09307257742975
N          10.89027288701082    0.70313594609214    0.07757534347044
C          12.21795511354709    0.32859531087790    0.07826204713269
C          12.80770495555991   -0.90667310779242    0.08550742483643
C          14.20209457463414   -0.66200149640075    0.08303281729792
C          14.35272387458807    0.68823184680528    0.07267076314157
O          13.15101572552163    1.30053576094747    0.07126872551305
H           1.03576706510513    1.03225789597183   -0.05765226770293
H           0.98822464559367   -0.69316315206297   -0.02538231373076
H           8.42615998449358    2.85004639264000    0.05577146518366
H          11.13574025228930    2.81971044971216    0.04870565181011
H           9.92969777459794   -1.19966090553650    0.10676281381281
H          12.32090144662235   -1.85870434854338    0.09216127060116
H          14.97932093199412   -1.39745212571171    0.08740680116729
H          15.21869628986894    1.31831747830293    0.06748671440282
