28
         -53.730568508256          0.000273881857
C           1.34801827912200   -0.08967723130096    0.08364267090834
O           2.71524890884542   -0.22164076615570   -0.27482367969349
C           3.25221367656323   -1.40198712401798   -0.02451126398212
S           4.93431354132246   -1.68551166264806   -0.44890430253165
C           4.63333011785044   -3.32853355057166    0.18955450393175
N           3.42654616639668   -3.48085093914290    0.63675985052144
N           2.66356193133614   -2.40743800387217    0.52624884374692
N           5.68066204814631   -4.13414112103570    0.36724687464916
N           5.58854058695615   -5.39409688504322    0.24725048815596
C           6.65374924938583   -6.12712546828940    0.65053064149311
C           7.88101251876065   -5.74652533785278    1.28478718638581
C           8.58589105260641   -6.88613268327130    1.49123038489049
C           6.69076033050668   -7.50962398216550    0.51241161276328
N           7.85818390096705   -7.95946544399848    1.02172166926554
C           8.28028197584558   -9.27394669655488    1.08337193680336
C           9.51806764188948   -9.82264009734795    1.32465083379002
N           9.43378459760816  -11.17416404077447    1.28865240716810
C           8.18996911352619  -11.45756168855639    1.03553988247883
N           7.43455337166646  -10.33766646222536    0.89809723870017
H           6.44561838438733  -10.28805589772253    0.71719260529252
H           1.07162706244228    0.93039696272811   -0.17259535239784
H           1.21611257934763   -0.26845926151095    1.15254714569004
H           0.73698826002717   -0.80491957239223   -0.47049319393741
H           8.16598751548755   -4.74625133443620    1.53807037051917
H           9.54471531001496   -7.03810763748824    1.94389712880226
H           5.95402689369969   -8.14700550987477    0.06716676295676
H          10.45185255561016   -9.33388271034990    1.50995259795866
H           7.79166242968280  -12.44695585412964    0.94113415567043
