26
         -49.880310297720          0.000872188280
C          -1.03095250308583   -0.31297200399898   -0.43837820963077
C          -0.23302854963347    0.75426371158641   -0.12797947234923
C           0.86005365170575    0.19653626319278    0.56533295730015
N           0.74036526622208   -1.10599910009841    0.66908437811133
N          -0.40787244852146   -1.41576440907280    0.06007657441172
C          -0.85028595497791   -2.70558754067966   -0.02191549818548
S           0.04870217464605   -4.02804591562402    0.69786636348124
C          -1.29136795615662   -5.03616197498159    0.08725831745708
N          -2.18920910712776   -4.34738195436809   -0.56049490720840
N          -1.93665346878398   -3.05974220534933   -0.62421272085950
N          -1.14719441927168   -6.35527806087743    0.10383142162063
N          -2.07640485748672   -7.17427709463539    0.36507272552203
C          -1.84448828428523   -8.48115540124017    0.11820505354021
C          -0.74313230141625   -9.14398991379278   -0.50477040674996
C          -1.04024769468887  -10.47171311641317   -0.51750371935326
C          -2.76624802156124   -9.47723165636771    0.45895669727587
N          -2.26221811522905  -10.65330415781247    0.07421072223752
N          -2.90227156433843  -11.88090321504829    0.14792825270816
H          -1.96316372265341   -0.40054806637744   -0.95462393630916
H          -0.39856728937718    1.78605135947108   -0.35892034235220
H           1.71212460182853    0.69565885446285    0.98094713751017
H           0.13856752715294   -8.66986674630936   -0.88378708236356
H          -0.48793852629167  -11.30911808906404   -0.89531440946201
H          -3.71986886439663   -9.37808015569017    0.93649153477703
H          -3.70549982139672  -11.82475800687756    0.76611257864137
H          -2.26287975087485  -12.60693140403419    0.45994599022865
