31
         -60.129496899022          0.000803592475
C          -1.20870237956304   -0.36002711069059    0.11782338235209
C          -0.38879657711745    0.73020556842690    0.19953554409652
C           0.91270958472795    0.19501313393927    0.31251440949345
N           0.88892781669383   -1.11520345323010    0.30097400151491
N          -0.39907272268648   -1.45543237434238    0.18259323038823
C          -0.80121386022961   -2.75765230087154    0.13798241607736
S           0.32220124847962   -4.08492362672117    0.22769485681241
C          -1.13479715118370   -5.10247072263973    0.09312539494833
N          -2.22487240914787   -4.40512296614354    0.00230340460253
N          -2.04841093881984   -3.10948709364842    0.02631751169045
N          -0.95505964039867   -6.43542488647003    0.10385215299293
N          -2.01230419010325   -7.15772730573309    0.00342561274990
C          -1.83145273028025   -8.49445295880987    0.01841826774117
C          -0.64284691003436   -9.29500759923535    0.12518504569275
C          -1.03736335993473  -10.58983895806841    0.08908910563061
C          -2.89946982499780   -9.38054940554275   -0.07821022764181
N          -2.41315114451116  -10.63919258893007   -0.03446750512271
C          -3.15875521583191  -11.79878142003717   -0.10004105951377
C          -4.50764648253693  -12.00041712127644   -0.21898504024448
C          -4.68131968245593  -13.40505496130587   -0.23320540358861
C          -3.43873672250267  -13.94447867648768   -0.12304403304228
O          -2.50555360958704  -12.97541238633494   -0.04143359711207
H          -2.26846301259249   -0.47042819537975    0.02174058007940
H          -0.66728898508726    1.76329115957368    0.18208010401001
H           1.84329604709748    0.71896429941829    0.40014378176282
H           0.35462021698786   -8.91664214039128    0.21478951252657
H          -0.46901323566265  -11.49722664910194    0.13975837770431
H          -3.94310633378785   -9.16337327017446   -0.17157098037947
H          -5.27274703765420  -11.25645430034083   -0.28705412362126
H          -5.60858834672059  -13.93273647968252   -0.31458414524466
H          -3.09246241055930  -14.95744520976826   -0.09163057735562
