24
         -46.491648972463          0.000946394866
C           0.91410006889541   -0.83149627577371   -0.00852877855799
N           0.78533299679928    0.51054239915932   -0.01254708470423
C          -0.50076999340360    0.75198731923159   -0.00289415997556
N          -1.22733565738950   -0.38300275379125    0.00719752978955
H          -2.22775447692288   -0.50061063820842    0.01581889375691
C          -0.33400967379564   -1.42612257216284    0.00373374512187
C          -0.75979100833633   -2.78360355243768    0.01301999582163
S           0.33693252508015   -4.14153730324079    0.00721908086963
C          -1.14190313555074   -5.13814836042396    0.02634910209478
N          -2.22125862229229   -4.41940290567410    0.03523895294917
N          -2.01871466857373   -3.12969485057161    0.02792058838353
N          -0.96936009916118   -6.47083458202060    0.03534213260521
N          -2.02579048492763   -7.19950837765630    0.04078530022008
C          -1.82379931471751   -8.53658923316632    0.05502527532455
C          -0.61718144469510   -9.31002683086654    0.06059317136876
C          -0.99024404261047  -10.61518149558437    0.07500769024642
C          -2.87985099403746   -9.44587372467083    0.06699453003538
N          -2.35981283141760  -10.68317087059721    0.07922514877655
H          -2.89192974167061  -11.53861554409107    0.08994021649930
H           1.87547689519905   -1.30413296518139   -0.01438441228976
H          -0.93347022650326    1.73239757640324   -0.00296626590110
H           0.37539325201451   -8.90972355853530    0.05349771966363
H          -0.39606331210240  -11.50780994842108    0.08262664302438
H          -3.93310600988049   -9.25218095171879    0.06812498487731
