18
         -37.697064976881          0.000658402281
H           0.95350288268539   -0.32695829833875   -0.09024700995326
C           2.00840715861377   -0.13935313342695   -0.08691913562573
S           2.65707231331549    1.46054193454377   -0.09370900830013
C           4.23758511283875    0.64923265142903   -0.08279656908401
N           4.12702507806385   -0.64296648222389   -0.07494430779335
N           2.89292340759115   -1.07740766957951   -0.07721146080868
N           5.32853297130650    1.44063605271208   -0.07988383737570
N           6.47061063732616    0.86564313813760   -0.07884799053946
C           7.54463516924932    1.69456098809869   -0.07272414944570
C           7.62056871696185    3.13299045144046   -0.07063735116967
C           8.93086161747039    3.46277639361205   -0.06457826704392
C           8.84400826826604    1.21989847468857   -0.06756778290273
N           9.68011893993541    2.29420122690807   -0.06244231654479
C          11.00602943271912    2.24684164089093   -0.05621441470078
N          12.14979519805518    2.21838326420378   -0.04968970641112
H           6.77920763769869    3.79494207733751   -0.07396392515755
H           9.42001995523488    4.41719972607068   -0.06155373398755
H           9.20534550266803    0.21112756349589   -0.06672903315587
