24
         -43.593829921708          0.000210811309
C           2.72032747889379   -1.01743005313745   -0.11650567510086
O           3.06162847653364    0.34070944651920    0.11340584694750
C           3.44358475665388    1.01376549423325   -0.95906435107428
S           3.92535423798838    2.69653217809903   -0.78518792111990
C           4.22671937616473    2.60591326720399   -2.54795876774588
N           3.94152406551644    1.44529318387378   -3.04672547699002
N           3.49768841254222    0.56437905195532   -2.16358944928826
N           4.46196236245257    3.74391917606642   -3.19912913183070
N           5.25738941305706    3.82348857394641   -4.18237463833979
C           5.25895909064420    4.98241685355939   -4.88170369771419
C           4.44697810962533    6.15510959293502   -4.77122259098759
C           4.86884556422609    7.00977408454660   -5.73932952165978
C           6.13978487496219    5.21137007712221   -5.93802258235723
N           5.89329235594121    6.42838462017702   -6.44177166735414
C           6.59101417558013    7.05441127142582   -7.52855400793975
H           2.41695487038902   -1.41457300660377    0.84938899468995
H           3.58011075970326   -1.56670572422080   -0.50555473108860
H           1.90314902125259   -1.08814533993521   -0.83707960492441
H           3.66420371737301    6.30788667369650   -4.05693156515424
H           4.52325965784782    7.99284383019765   -5.99405079477879
H           6.90026923800980    4.56502634461967   -6.32789257220997
H           7.25816486748414    6.33377528726523   -7.99752826002930
H           7.18144298177016    7.90086975725416   -7.16890991564936
H           5.88112213538811    7.41912535920050   -8.27299791830005
