26
         -49.415862294212          0.000848913771
C          -1.02920487844660   -0.35563553205126   -0.40913711294412
C          -0.31458956928144    0.83299138912346   -0.18813898999963
C           0.86717483664724    0.62464735377974    0.45443341250163
S           1.13615967322511   -1.03314925646453    0.80708657951851
C          -0.37691990490986   -1.46448539700395    0.07361374485532
C          -0.83032127191005   -2.81183039954404    0.01158671280163
S           0.06508049590897   -4.17085939038948    0.70068601739773
C          -1.30119607585206   -5.15762679891868    0.13836920591781
N          -2.20816027999610   -4.45005057036666   -0.48478822751084
N          -1.93959468600192   -3.17515087118197   -0.55404223275380
N          -1.17566735194740   -6.47645451390100    0.15342532583806
N          -2.11581823700802   -7.28555977275992    0.40848474025766
C          -1.89798709655422   -8.59301624119738    0.14954185107528
C          -0.79513939080731   -9.26152850552709   -0.46375852813953
C          -1.10727560098226  -10.58574426097649   -0.49564752546779
C          -2.83656441588526   -9.58137263724374    0.46436006826710
N          -2.34080153624479  -10.75934565746367    0.07304737601421
N          -2.99936899100264  -11.97913973740347    0.11919868898705
H          -1.98259817343225   -0.42137674158742   -0.89882510872243
H          -0.66117192187255    1.80416545367918   -0.49320386834900
H           1.60224819099261    1.34818885116058    0.74581060649887
H           0.09953799870477   -8.79460742795190   -0.82117984599621
H          -0.55753490415950  -11.42510226673244   -0.87325921115088
H          -3.79748490592854   -9.47656995980000    0.92610110310379
H          -3.79491508452901  -11.92908255901582    0.74689697949853
H          -2.36749691872744  -12.72219455026076    0.40284823850186
