31
         -59.302134203380          0.000455140409
C          -1.20838460562768   -0.32414123719510    0.12043537173040
C          -0.39032171931286    0.76718893848136    0.20613334323257
C           0.91142616340298    0.23398783114376    0.32417303156247
N           0.88968612496701   -1.07618840029782    0.31146097172841
N          -0.39722024680056   -1.41833721358843    0.18777586129700
C          -0.79558308074823   -2.72181972783016    0.14098553067417
S           0.33405634170639   -4.04242605723776    0.23654266677832
C          -1.11839345663108   -5.06820140179232    0.09574853815604
N          -2.21063238709165   -4.37586088536614   -0.00111259032106
N          -2.04049824089009   -3.07933592718972    0.02310470076918
N          -0.92784464455404   -6.39910522478602    0.10677921197415
N          -1.97700350855821   -7.13424301429966    0.00976452372409
C          -1.77575924027863   -8.46781565201538    0.02466778970971
C          -0.57425558567289   -9.24836644339851    0.13006997003490
C          -0.94783351780002  -10.54936197496044    0.09685666593515
C          -2.82677381723338   -9.37362752785791   -0.06833766790674
N          -2.32370534914303  -10.62490881731761   -0.02408626693990
C          -3.06096387328152  -11.79095293477358   -0.08673122073292
C          -2.61408190070730  -13.08235931518148   -0.04727835650727
C          -3.66528203055438  -14.01908629750461   -0.13576013706550
C          -4.88598530043038  -13.43744488732481   -0.24035850796812
S          -4.79286605479472  -11.72103458057248   -0.23433817306753
H          -2.26732554640672   -0.43775887980438    0.02008641524719
H          -0.66997394550052    1.79995924432834    0.18826218489955
H           1.84122125622232    0.75863232034755    0.41587829127214
H           0.41714171859352   -8.85382710909470    0.21739848567095
H          -0.35072691849564  -11.43701693303262    0.14927782810368
H          -3.87588819027437   -9.17605414045406   -0.16039245507222
H          -1.58149090710837  -13.36376218689128    0.04094649250528
H          -3.51190396241744  -15.08272611197829   -0.12142150037115
H          -5.84556357457850  -13.90690545255579   -0.32150099905298
