31
         -60.143940543597          0.000719274051
C          -1.27241903343034   -0.29059318397104    0.10826062161037
C          -0.37461226040252    0.79042651540433    0.19227124147005
C           0.87046180926198    0.23954618963807    0.29512113461787
O           0.80575223239152   -1.09620148434634    0.28065540554427
C          -0.49874203515444   -1.42917996830426    0.16691612128755
C          -0.88780671021462   -2.79884486885388    0.12547831544697
S           0.25302241855168   -4.12110123918978    0.21318551027192
C          -1.18100445079323   -5.16366454924353    0.08680946889406
N          -2.28381874430801   -4.48076608026346   -0.00119155411757
N          -2.12907783628155   -3.18808880123214    0.01941570634299
N          -0.97661278875323   -6.49179684235321    0.10063724496052
N          -2.01894598107617   -7.23663933876070    0.00310943673029
C          -1.80575925796157   -8.56917498507889    0.02262146906304
C          -0.60284293874076   -9.34415600263829    0.13048059479323
C          -0.97190896475928  -10.64746579202753    0.09796387686720
C          -2.85434886293975   -9.47868690326631   -0.07065216050791
N          -2.34520149423656  -10.72854044794841   -0.02424123466378
C          -3.05186204169389  -11.91332867702610   -0.08527416472189
C          -2.63676977571618  -13.22488650907001   -0.04876372839972
N          -3.70914048502213  -14.04706386574632   -0.14120363998223
C          -4.75414511762888  -13.27811998800724   -0.23187029051164
N          -4.41734475680647  -11.96304180641249   -0.20335353870225
H          -5.03925322966099  -11.17370302857520   -0.25725897949051
H          -2.33774325103142   -0.26411729805883    0.01725289232872
H          -0.61666667090569    1.83308127455349    0.17853189681820
H           1.84331551174461    0.68199461190156    0.38142646121916
H           0.38665775628586   -8.94534004376179    0.21820177857796
H          -0.37965311281403  -11.53832557730428    0.15101606215088
H          -3.89895889254235   -9.26146729328546   -0.16358121839999
H          -1.64711300456088  -13.62269298648668    0.03691557727040
H          -5.76464803080080  -13.62128103028530   -0.31908030676814
