27
         -49.645153066860          0.000650320563
C          -1.21303743438565   -0.32654369718199    0.02103162557091
C          -0.38567178199670    0.76137734592425    0.04457416596353
C           0.91791528568223    0.22222215496732    0.08007753786277
N           0.88882027602867   -1.08809409883734    0.07851952666678
N          -0.40488439459609   -1.42420100684389    0.04255995160989
C          -0.80976310856486   -2.72740443776823    0.03171951899085
S           0.32497047528191   -4.04828880900377    0.06218590429963
C          -1.13333430120905   -5.07479624893314    0.02476797362773
N          -2.22965013322636   -4.38339418225914   -0.00433925907339
N          -2.05840871071552   -3.08506767267892   -0.00076912798135
N          -0.93849886868119   -6.40548077689761    0.03432841322964
N          -1.98880058461448   -7.14547324801669    0.00672726444871
C          -1.78422817265000   -8.47776658551491    0.02061291492106
C          -0.58324129457017   -9.25844095808344    0.05881909514053
C          -0.96885852898905  -10.56006498938864    0.05769697299504
C          -2.84338224217414   -9.38812543225202   -0.00168887474034
N          -2.34016197880163  -10.62807985118413    0.02119079684389
C          -3.09171674075320  -11.85072937916558    0.01149926667191
H          -2.27687252487667   -0.43476566373693   -0.00832146664011
H          -0.66091920786200    1.79551753634257    0.03772311241428
H           1.85459128257428    0.74203338177106    0.10634039500384
H           0.41291039099852   -8.86727194337923    0.08268327374139
H          -0.38179315457370  -11.45773408708284    0.07995870456324
H          -3.89511659178612   -9.18583054790930   -0.03123991106348
H          -4.15555252459359  -11.62415956066213   -0.02090108615455
H          -2.88044788950015  -12.43495280075159    0.90977547870280
H          -2.83000754144532  -12.45200444147373   -0.86184216761518
