31
         -58.837836443872          0.000558760670
C          -1.15613967552998   -0.35315575642757    0.15232581402703
C          -0.43650497417778    0.84911461473222    0.23469498074268
C           0.90525755292693    0.65069106091170    0.36317251545942
S           1.32233540493720   -1.01166193309496    0.38665829519014
C          -0.34564339740773   -1.46164741529687    0.21984613885436
C          -0.76346088887590   -2.82103034735516    0.16662154244384
S           0.33218212863309   -4.18520693359181    0.26247091689579
C          -1.13147227462257   -5.18089524225629    0.11336800156941
N          -2.20969484425702   -4.46188005056967    0.01308855233954
N          -2.01363207535771   -3.17585418110540    0.04167067994905
N          -0.96155512530290   -6.51283030319501    0.12067550550252
N          -2.01753385245082   -7.23838118740668    0.02318869786395
C          -1.81995996263714   -8.57338870158766    0.03442370107229
C          -0.61758762995187   -9.35280534086580    0.13747222796470
C          -0.98942578822105  -10.65436871411523    0.10260576374232
C          -2.86976053444272   -9.47972786895841   -0.05919451255835
N          -2.36475509490606  -10.73117033334983   -0.01739844449437
C          -3.09893724734480  -11.89860015606543   -0.08111458527655
C          -2.64753209608447  -13.18845734114049   -0.04333362930943
C          -3.69533322519744  -14.12882108471091   -0.13234233664706
C          -4.91831275549664  -13.55167551942206   -0.23570171863563
S          -4.83112727016804  -11.83460362551806   -0.22778233014346
H          -2.22224188494467   -0.43007882582912    0.04796126940140
H          -0.89175661149473    1.82249078733898    0.20052429889121
H           1.67966235614371    1.38733670504896    0.44613258987054
H           0.37367039137236   -8.95773854374141    0.22485306571064
H          -0.39088651322799  -11.54119856291429    0.15335119791443
H          -3.91938710695204   -9.28437694028467   -0.15025773087908
H          -1.61393963281748  -13.46653278550098    0.04410561040516
H          -3.53794196712763  -15.19195059533103   -0.11923940782594
H          -5.87610540501614  -14.02464487839706   -0.31691667004050
