17
         -33.175646860626          0.000863299562
H           0.94913463935095   -0.22297347836465   -0.01111784469399
C           2.00218876201800   -0.02554368232925   -0.00538060823594
S           2.63361366004275    1.58352267545028   -0.02039657443557
C           4.22588960797630    0.78817507846911   -0.00017982717498
N           4.12767734969799   -0.50339328786365    0.01571423378108
N           2.89531330655728   -0.95294909125810    0.01261554343446
N           5.30412907089971    1.59590125517476    0.00336478647112
N           6.45517694866747    1.03170452877798    0.00220441421866
C           7.52357304365575    1.85889157034383    0.01160326336896
C           7.61193528367743    3.28964038507600    0.01733795323224
C           8.93367341835753    3.59860464000149    0.02397874821535
C           8.83250614464242    1.37872670447265    0.01568483218488
N           9.65947348320726    2.43486915905883    0.02351440782773
H          10.66590208596192    2.38664141320933    0.02818380963325
H           6.77955859090032    3.96246562514055    0.01527479988802
H           9.42437279526782    4.55202096309628    0.02889013191984
H           9.17612180911910    0.36437554154459    0.01448793036489
