31
         -59.801764432011          0.000523470552
C           0.89190606711149   -0.88941618739202    0.31015789968708
N           0.77358856322536    0.45338520073255    0.30928627458223
C          -0.50546972583267    0.70525544271466    0.19460927923376
N          -1.23766224111749   -0.42394228044649    0.11969024089579
H          -2.23516634831407   -0.53090260777432    0.02818775747257
C          -0.35584778562029   -1.47390489382639    0.19228306242101
C          -0.78551870889363   -2.82866317433694    0.14399262958310
S           0.30305433745134   -4.19003374050853    0.23259924192441
C          -1.17097339895941   -5.18169658010706    0.09427836785798
N          -2.24575791106716   -4.45978336365785    0.00254065720442
N          -2.04098633464359   -3.17138926505896    0.02914540676607
N          -1.00184083260352   -6.51314246046439    0.10359286053281
N          -2.05462045026596   -7.24314905187732    0.00552229417501
C          -1.84713550794381   -8.57725906896345    0.02162330492969
C          -0.64174309466203   -9.34855180108029    0.12771525656891
C          -1.00653876427142  -10.65276560556730    0.09485555903908
C          -2.89326009019945   -9.48968556708238   -0.07139795626563
N          -2.37961908109521  -10.73789138435541   -0.02622586072955
C          -3.07956743505722  -11.92664090278466   -0.08623772393427
C          -2.65425065928591  -13.23507701798719   -0.05021448978464
N          -3.72025649285417  -14.06546101885606   -0.14035023491552
C          -4.77132615158507  -13.30471131197887   -0.22909678483791
N          -4.44473335752134  -11.98681239264123   -0.20158925937642
H          -5.07474443253660  -11.20385359956112   -0.25466219961983
H           1.84595593790901   -1.36959136968554    0.39364834945251
H          -0.92929843356852    1.68904124025479    0.16324164232778
H           0.34640114003711   -8.94639857775252    0.21499750327059
H          -0.41070287819570  -11.54118506911683    0.14711668894373
H          -3.93921294106533   -9.27833453436695   -0.16364606578878
H          -1.66143334262137  -13.62531839233257    0.03359930618787
H          -5.77928964595333  -13.65569066413931   -0.31419300780383
