24
         -50.635867776552          0.000473374043
C          -1.23847327091098   -0.28613028953636    0.00283181240631
C          -0.41641388401421    0.80489424556573   -0.00121239697681
C           0.89176920788637    0.27174578022587    0.00033562706288
N           0.86936927934093   -1.03790169455522    0.00495879868936
N          -0.42383011875036   -1.38070173809938    0.00647157122479
C          -0.82088339843427   -2.68387621771441    0.01250826958026
S           0.31640571759684   -4.00043102606494    0.01888351788256
C          -1.13817895217131   -5.02992303014289    0.02572381234978
N          -2.23760952570668   -4.34215845346851    0.02225089385280
N          -2.07125320168225   -3.04640829378759    0.01494292196061
N          -0.94420929778573   -6.36205396485111    0.03475616771123
N          -1.99059213405560   -7.10093780153439    0.04317079031807
C          -1.77588272887628   -8.43725549883328    0.05408892874455
C          -0.56340016794449   -9.19917395515985    0.05753326837264
C          -0.91491359656724  -10.51423883265471    0.07129772796303
C          -2.83252153539863   -9.34958008212083    0.06611087305074
N          -2.27432092316240  -10.56091805278772    0.07604315156552
F          -2.98228637728178  -11.72654363369254    0.08980439608671
H          -2.30225700106270   -0.39949986017434    0.00357263457230
H          -0.69639837708515    1.83763252061795   -0.00468781789283
H           1.82568181995617    0.79698251390007   -0.00170441266732
H           0.42655279275940   -8.79175260426578    0.05046463807133
H          -0.32917794448906  -11.41094113983477    0.07816713761335
H          -3.88978638216060   -9.18533889103103    0.06800768845817
