24
         -46.833662908425          0.000773042289
C          -1.25045853927100   -0.24297757802601    0.00366933827908
C          -0.34825947186847    0.83803270279063   -0.00317874579693
C           0.90068877004478    0.28693719072202   -0.00434488077696
O           0.83441865931716   -1.04902630922275    0.00173165395374
C          -0.47491599170370   -1.38138919996635    0.00666857148022
C          -0.86611750917384   -2.75143240070474    0.01451229576944
S           0.27720058404196   -4.07508431734748    0.01726548018780
C          -1.16210007146628   -5.11600592584561    0.02827080223322
N          -2.26780667956127   -4.43335795247313    0.02854863438253
N          -2.11147269118163   -3.14006330324991    0.02096319109627
N          -0.95688209687520   -6.44584031431773    0.03690436367863
N          -2.00322384389881   -7.18880921050543    0.04397750135784
C          -1.79310492333191   -8.52328155837494    0.05506799000734
C          -0.58637449237316   -9.29687110451620    0.05953176622676
C          -0.95916673807371  -10.60247691236171    0.07190484994620
C          -2.84873584498670   -9.43358535550837    0.06534394222564
N          -2.32856260752516  -10.67089554990653    0.07540517845824
H          -2.86142318808248  -11.52591246296359    0.08429861179007
H          -2.31957660372956   -0.21535331380747    0.00638037222833
H          -0.59075067465994    1.88067673996799   -0.00690657728164
H           1.87764317751201    0.72875866062178   -0.00880253271115
H           0.40726252629278   -8.89861150992161    0.05378588556817
H          -0.36435806935385  -11.49479959915730    0.07858388565490
H          -3.90235368009185   -9.24121141592567    0.06604842204217
