31
         -60.491325904164          0.000663026316
C          -1.24466895911017   -0.29584123763950    0.12014294386819
C          -0.34530593022781    0.78424931703238    0.19883585890865
C           0.89944688200493    0.23192394686124    0.29690672140315
O           0.83312075489691   -1.10400916880093    0.28386777992680
C          -0.47234956219489   -1.43521759208304    0.17648097865187
C          -0.86724299664318   -2.80346451380727    0.13736883361633
S           0.26712437819395   -4.13295861892316    0.21006778655608
C          -1.17337273953122   -5.16598764481728    0.09437545208355
N          -2.27337336458757   -4.47727115466763    0.02116620588310
N          -2.11138750541645   -3.18581941262956    0.04401536848345
N          -0.98099556229259   -6.49723657652230    0.10690436682763
N          -2.03298527968114   -7.22617646329716   -0.00145323633426
C          -1.84691647694937   -8.56247904026020    0.01976755894274
C          -0.65696206726998   -9.36013450366568    0.13117999133157
C          -1.04845937128200  -10.65613851246811    0.09507987278026
C          -2.91244570182834   -9.45076372834301   -0.07867079173988
N          -2.42360712437683  -10.70896726010391   -0.03152445468310
C          -3.16738660902447  -11.86958827257616   -0.09740067843198
C          -4.51621110588710  -12.07150084516439   -0.21616242927014
C          -4.69008149510028  -13.47617638245268   -0.23142597039548
C          -3.44752177835440  -14.01564338240043   -0.12203431042405
O          -2.51405081758913  -13.04634258195103   -0.03981026024248
H          -2.31029523139761   -0.26845674228660    0.03363368113330
H          -0.58657640158900    1.82706327799161    0.18479371094260
H           1.87316377788979    0.67346582334554    0.37870045008548
H           0.33931656258708   -8.97905223971197    0.22204120553382
H          -0.47874675412750  -11.56252609611487    0.14745778612069
H          -3.95599497808221   -9.23470202207646   -0.17404924070574
H          -5.28123835566489  -11.32750026491852   -0.28324783729838
H          -5.61756287715671  -14.00339384834737   -0.31296718208427
H          -3.10039331020787  -15.02832425920149   -0.09153016146942
