25
         -50.529916484707          0.000486114521
C          -1.15303994105810   -0.37084139101671    0.00484026486848
C          -0.42364229204989    0.82703671770600    0.00001478076886
C           0.92406952083557    0.62159397938718   -0.00291705028668
S           1.33473450982187   -1.04092737506541    0.00006204187302
C          -0.34372789283034   -1.48397195234934    0.00552889926303
C          -0.77372359944103   -2.83927212095895    0.01133706693795
S           0.31105497912683   -4.21234549270221    0.01326993704940
C          -1.16966307313866   -5.19359565271170    0.02324875715542
N          -2.24589306646113   -4.46332740222851    0.02365720799990
N          -2.03618810554479   -3.18267751481162    0.01716935488621
N          -1.01744808160709   -6.52789381080298    0.03165516224110
N          -2.08089460379274   -7.24217865676752    0.04090633637618
C          -1.88507393167359   -8.58478595557902    0.05221147552577
C          -0.67052804314405   -9.35937213235735    0.05228671288112
C          -1.02798653269084  -10.66239957653162    0.06797379390816
C          -2.93705033844776   -9.48182399761191    0.06808866843613
N          -2.41378652467370  -10.74022045625860    0.07790498720713
C          -3.10895111034702  -11.86907340280967    0.09550216012552
N          -3.70013826448410  -12.84888456238361    0.11088946634117
H          -2.22447532222112   -0.44374622153659    0.00786680221604
H          -0.87488971896261    1.80268525774646   -0.00113025057272
H           1.70574555383890    1.35533897320471   -0.00661109460505
H           0.31993180563060   -8.95299536033448    0.04151040890735
H          -0.43800721901178  -11.55811600455453    0.07335208362462
H          -3.99278870767341   -9.29935588867202    0.07346202687194
