27
         -50.006817703663          0.000616835673
C          -1.25864980871752   -0.27296240556836    0.01695041489450
C          -0.35780244454908    0.80905797191256    0.04149391232646
C           0.89110809436647    0.25925192846614    0.07444466974560
O           0.82610967155185   -1.07698976823378    0.07150519021948
C          -0.48260175906894   -1.41063514429696    0.03671226970034
C          -0.87206379596995   -2.78162609027297    0.02678003398144
S           0.27535076471625   -4.10213915627434    0.05706278960712
C          -1.16146599209525   -5.14769574802947    0.02232839726962
N          -2.26823596557415   -4.46796051913556   -0.00652076305197
N          -2.11521120723584   -3.17341950729756   -0.00420405136558
N          -0.95175198026174   -6.47630245389809    0.03267416474036
N          -1.99774356734077   -7.22253909041360    0.00823565574918
C          -1.78886157672782   -8.55434310344861    0.02246961727667
C          -0.58784262635752   -9.33459972563562    0.05884391413737
C          -0.97301121866591  -10.63676835299374    0.05931635973431
C          -2.84737316893729   -9.46484445308308    0.00279097720606
N          -2.34382428863403  -10.70535698076683    0.02545613951694
C          -3.09602115671231  -11.92735842726967    0.01757180920272
H          -2.32743002542651   -0.24630169208136   -0.01137796857143
H          -0.60097600342131    1.85158042477087    0.03581062487238
H           1.86739905677005    0.70179536643980    0.10078701478320
H           0.40919460269568   -8.94518831005460    0.08069781789683
H          -0.38513733053943  -11.53402803789737    0.08112048206751
H          -3.89953695707170   -9.26424532683929   -0.02493522900255
H          -4.15978138564160  -11.69980711177661   -0.01182863584974
H          -2.88294528157883  -12.51208151324845    0.91518077803816
H          -2.83745464957275  -12.52876277307343   -0.85672638512503
