27
         -49.664848869692          0.000470165348
C           0.89873350774858   -0.85393500132571    0.07598656419154
N           0.76973003023402    0.48860263507309    0.07216910636957
C          -0.51584444498852    0.72941120221441    0.03701280541128
N          -1.24182972133144   -0.40636846338646    0.01748033961126
H          -2.24203984937831   -0.52295530386777   -0.00970064811151
C          -0.34854047895131   -1.44863032497639    0.04208975438151
C          -0.77212499998897   -2.80687727560432    0.03189848364143
S           0.32823306254401   -4.16236293381521    0.06193476465427
C          -1.14644684672219   -5.16297135815958    0.02552440966785
N          -2.22810880728432   -4.44770537419486   -0.00315716489173
N          -2.02919302394026   -3.15660453955433    0.00011577054494
N          -0.96891719215690   -6.49424445318177    0.03623577307966
N          -2.02442713405539   -7.22712784758838    0.00740534035122
C          -1.81984532023770   -8.56006283015798    0.02370652412047
C          -0.61543934452443   -9.33500449268551    0.06529992765662
C          -0.99463780225144  -10.63860152555594    0.06513467625864
C          -2.87449852918010   -9.47494033766304    0.00063778824590
N          -2.36508474945647  -10.71308355953792    0.02616261027008
C          -3.10962053332210  -11.93967988828545    0.01632062161116
H           1.86005492275072   -1.32600039179012    0.10249007296087
H          -0.94944075999181    1.70938922853649    0.02500048834024
H           0.37905797610608   -8.93945185107774    0.09049581032828
H          -0.40270111404510  -11.53305786497246    0.08966240912274
H          -3.92772882964211   -9.28008184853723   -0.03110625951704
H          -4.17480962201457  -11.71963073130878   -0.01712304767605
H          -2.89549548642526  -12.52234851331101    0.91503697526478
H          -2.84341490949472  -12.53986635528605   -0.85654389588797
