21
         -40.420696973516          0.000397800341
C           2.78113714319747   -1.05581750387887    0.31284393165483
O           2.94318472756514    0.27630126522178   -0.14984275968628
C           3.38065982058689    1.13694616447205    0.75260656847986
S           3.65297188805825    2.80868861761725    0.27734494195238
C           4.17565478836080    3.01927970103118    1.97565321183827
N           4.08135496258229    1.92909596665471    2.66925513726620
N           3.63049747724705    0.88688326324327    1.99039276648794
N           4.35975012691818    4.26095422519013    2.42238833472254
N           5.24491462280664    4.56371080083224    3.27499229558398
C           5.19427398368400    5.81687235131232    3.79229243475369
C           4.25100116643252    6.87610162019737    3.59850443435034
C           4.66459162095418    7.91370336996156    4.37137262187200
C           6.14353845227059    6.28762925155512    4.69467941455543
N           5.80839882368444    7.54453903733977    5.02853917696088
H           6.31802294782973    8.13170149651280    5.66923783143957
H           2.38477996838541   -1.61620092830020   -0.53078101311993
H           2.08809488552376   -1.08456072986380    1.15607826925254
H           3.74055031489586   -1.46846853381615    0.63196602308749
H           3.39321235155533    6.83495055225072    2.95942164379223
H           4.23918293924016    8.88798381980648    4.51056333040403
H           7.00380698822146    5.78742619265879    5.09053140435172
