24
         -50.655780418087          0.000477008507
C           0.90863201348609   -0.82161141026693   -0.00285571079980
N           0.77653164790030    0.51927991968497   -0.00799329722136
C          -0.51053990006290    0.75797717085467   -0.00804522523295
N          -1.23459866959401   -0.37835959245433   -0.00310534095224
H          -2.23520877388515   -0.49585313653880   -0.00183724147989
C          -0.33902990578432   -1.41931910525176    0.00035316516721
C          -0.75962006173691   -2.77716615955184    0.00723870911715
S           0.33873370245025   -4.13260885976322    0.01264268260988
C          -1.13609323519618   -5.13112172250320    0.02132969871186
N          -2.21830052780000   -4.41502316878472    0.01920993708877
N          -2.01940234220009   -3.12720400834351    0.01149679117189
N          -0.96486868775799   -6.46424177184787    0.03237414078143
N          -2.02041840011006   -7.19112494058277    0.03839160304204
C          -1.81414244472237   -8.52951922561889    0.05332831515382
C          -0.60406649468678   -9.29488863874238    0.06123589946514
C          -0.95916165551308  -10.60903460536035    0.07739289941788
C          -2.87329875914885   -9.43825756140394    0.06532370589308
N          -2.31841681572229  -10.65165766673107    0.07951699448916
F          -3.03039973811426  -11.81535085394396    0.09487300344759
H           1.87135855013368   -1.29162459071850   -0.00156427104774
H          -0.94529845607146    1.73747994537452   -0.01148284647357
H           0.38694947467266   -8.88997224183131    0.05500432916391
H          -0.37554166098699  -11.50706644452997    0.08751593974239
H          -3.93018885954928   -9.27186133114484    0.06489611874438
