31
         -59.665229940955          0.000560860399
C          -1.15503600295889   -0.37726340697180    0.14826169313824
C          -0.43548936873444    0.82507747960723    0.22675563156080
C           0.90686675708425    0.62682722770683    0.34875739391548
S           1.32442865534477   -1.03534938837183    0.37070790019246
C          -0.34396264758525   -1.48569860694253    0.21213895176596
C          -0.76459376529946   -2.84456775404154    0.16080754237360
S           0.32601547474703   -4.21252413051330    0.25108449409444
C          -1.14208161754857   -5.20249456848541    0.10777803517284
N          -2.21784026651039   -4.47935809846316    0.01304610379390
N          -2.01678647388456   -3.19421505053118    0.04153014954610
N          -0.98130737846607   -6.53646390715867    0.11347304454081
N          -2.04602136345570   -7.24923962010787    0.01603874889192
C          -1.86991511944798   -8.58799194343729    0.02471774719518
C          -0.68168561866362   -9.38921389667181    0.12561578827240
C          -1.07667503944582  -10.68374016781286    0.08709250519222
C          -2.93866960995666   -9.47239809767527   -0.07151428474004
N          -2.45260106854373  -10.73220662319057   -0.03305246063138
C          -3.19644784136432  -11.89261813321466   -0.09997975434627
C          -4.54509024910373  -12.09671812085147   -0.21721401199691
C          -4.71649079046355  -13.50168049519197   -0.23412528137020
C          -3.47289806241970  -14.03916147166062   -0.12707376740274
O          -2.54103674475337  -13.06850274227549   -0.04489181933592
H          -2.22147118055427   -0.45502778706846    0.04910410729712
H          -0.89121988615962    1.79823598965959    0.19450891632373
H           1.68151425391197    1.36366184836988    0.42772572429199
H           0.31607550441649   -9.01142741338615    0.21395579058166
H          -0.50921226580345  -11.59181454255728    0.13385681961672
H          -3.98218866967516   -9.25407108494757   -0.16181103008519
H          -5.31137024604163  -11.35371901388373   -0.28258152401927
H          -5.64296822134011  -14.03088527656380   -0.31516145925870
H          -3.12383114732441  -15.05128120336727   -0.09821169457100
