24
         -46.471891777259          0.000397484387
C          -1.20487006588728   -0.29910087344578   -0.00086332990402
C          -0.37841191011067    0.78935453219472   -0.00392609112423
C           0.92664741704149    0.25144635473267   -0.00042965328273
N           0.89901183038523   -1.05869043241823    0.00410485433350
N          -0.39504050523071   -1.39623322066468    0.00394553650558
C          -0.79998879252722   -2.69880868596401    0.00959491913848
S           0.33089247071645   -4.02187031333264    0.01399491137251
C          -1.13037805147354   -5.04474590885482    0.02069849324588
N          -2.22515883750595   -4.35048193789835    0.01924550025815
N          -2.05098330610588   -3.05358507946069    0.01309506174466
N          -0.93923095571152   -6.37654187838122    0.03089650514035
N          -1.98901129568488   -7.11444292023883    0.03116995913083
C          -1.78145006441235   -8.44943306095219    0.04579846134195
C          -0.57353473390033   -9.22142307832847    0.05823876990313
C          -0.94487178830883  -10.52704815025564    0.07051603655551
C          -2.83635686290549   -9.36111308747379    0.05161827403646
N          -2.31458849573872  -10.59705052936135    0.06669457995230
H          -2.84574052685334  -11.45322577311568    0.07422547226816
H          -2.26897481640391   -0.40858394564707   -0.00164287070234
H          -0.65475121867449    1.82318029325385   -0.00791242330493
H           1.86285592658464    0.77271664779743   -0.00111776780924
H           0.41861355735413   -8.81994221145527    0.05708191444916
H          -0.34934618627215  -11.41874225189824    0.08170680780734
H          -3.88991278837468   -9.16893448883171    0.04648607894355
