24
         -46.005819877355          0.000618488633
H           0.86831012230931   -0.28153674284180   -0.10208431755842
C           1.92170706195557   -0.08648031112567   -0.09593867466674
S           2.55685361221652    1.52190374803230   -0.10632450457222
C           4.14705194773610    0.72359418159795   -0.08655751504896
N           4.04620452722383   -0.56871621358293   -0.07278066892726
N           2.81347359501295   -1.01513260570387   -0.07765528970912
N           5.22721506404192    1.52649669632747   -0.08053553744096
N           6.37743387836183    0.95627720674414   -0.07789892884114
C           7.44599838121468    1.77995418344439   -0.06585326640222
C           7.53443236200007    3.21388983109446   -0.06113921120403
C           8.85168730727353    3.52515529432747   -0.04893261611482
C           8.75283929968831    1.30429615072891   -0.05567389412165
N           9.59497148569079    2.35837880190579   -0.04491179132358
C          10.97445775597383    2.29042400027134   -0.03063268986225
C          11.87422398184822    3.31979263651220   -0.01915294663531
C          13.21026598463678    2.86745935547220   -0.00508039266618
C          13.31162350959544    1.51498494256092   -0.00597251931927
S          11.77452808365804    0.74584494109501   -0.02417133144836
H           6.70195371572763    3.88695773173498   -0.06738348865403
H           9.33101502687674    4.48287594309293   -0.04270661433745
H           9.09777967101207    0.28974507063045   -0.05444753954389
H          11.60578255854723    4.35957734938715   -0.02058412398480
H          14.05761259264311    3.52845303565452    0.00533811723186
H          14.19652847475548    0.91111477263969    0.00298974515082
