25
         -51.357848917381          0.000962109746
C          -1.11082405938769   -0.27009710847690    0.39906198380247
C          -0.22317638745837    0.78375099591599    0.11274462343301
C           0.88213922973931    0.20615544802083   -0.44299907932973
O           0.74152972487202   -1.12191485281268   -0.51842999233996
C          -0.47261932850881   -1.42199802124576   -0.00667646382362
C          -0.90901749863581   -2.77548350146611    0.04454193697336
S           0.05572885562357   -4.11000991166792   -0.57356961560123
C          -1.32272175288943   -5.12137057015904   -0.09650160045066
N          -2.28150541564859   -4.43231932377753    0.46610717922554
N          -2.04587131132836   -3.15537587075142    0.54830137444981
N          -1.17821225327406   -6.44248578068544   -0.10755498570831
N          -2.13636089352471   -7.23713880535495   -0.33826187404555
C          -1.90618445505729   -8.55469646431698   -0.09344209299446
C          -0.76350127462112   -9.21517484423510    0.47944927514626
C          -1.05080181322435  -10.53499178027364    0.53310042348697
C          -2.84686538280579   -9.53061944322449   -0.36120264776181
N          -2.32436068308268  -10.72985779425908    0.02023838649689
C          -2.92991934434205  -11.90611680393141   -0.07685361927326
N          -3.44295049645718  -12.92599205381144   -0.15452929243140
H          -2.08360310836056   -0.21736972881054    0.83949237505892
H          -0.38072518537967    1.82698956342919    0.29252455079853
H           1.79931790745660    0.62301872119144   -0.80965827616666
H           0.13715753592329   -8.73052454344927    0.79616470241012
H          -0.47778343324528  -11.36905432068556    0.88763443668460
H          -3.82687917638157   -9.44165320516016   -0.78446170803884
