19
         -36.621043294151          0.000889412534
N           1.42954421235080    0.15982037419836    0.19226075615184
C           2.77425416887971    0.11830352900865    0.11039039279203
S           3.76371441016846    1.56582368852034    0.13760880017917
C           5.14664423285627    0.41961563666862    0.08628804519352
N           4.75634854173137   -0.80902997479637    0.05275157214985
N           3.45678064209066   -0.98877170818845    0.06273958707711
N           6.37071378105026    0.96856454010476    0.08099373126321
N           7.37790829564447    0.17427642469036    0.06753332527057
C           8.59711795905570    0.76462261958604    0.05924719763987
C           8.97960334915551    2.14498061716179    0.06354624449394
C          10.33752109311646    2.17521252332946    0.05543507736300
C           9.77648966241320    0.02525505857155    0.04796951332458
N          10.80714954133852    0.88816725162088    0.04578600720891
H          11.78105292550026    0.63107700845531    0.03902582510497
H           0.95820637408144    1.02363282895578   -0.00926255743683
H           0.94137025073258   -0.70030265689857    0.00678031951521
H           8.30542718103917    2.97643672195363    0.07238436187387
H          11.01407483797266    3.00738721673134    0.05599652308467
H           9.90510854082249   -1.03788169967349    0.04170527775054
