28
         -54.078236610472          0.000599456799
C           1.67112185365774   -0.39535277843400   -0.27272873665483
O           2.94812867712886   -0.14057392864182    0.29265999762825
C           3.29633782392679   -0.94341976498960    1.28245222813934
S           4.87536172969495   -0.74813035466613    2.02941669920564
C           4.37433765540833   -2.14114485788170    3.03533292071322
N           3.17981937163220   -2.55696945408002    2.75627917767320
N           2.57869173006391   -1.88562629336948    1.78938268058403
N           5.13286713481988   -2.45563046550710    4.08503520035089
N           5.26176544298021   -3.64914701232525    4.49563643978647
C           5.89682231563702   -3.82159019229247    5.67954176304711
C           6.40896151820564   -2.86668144841655    6.62047098149993
C           6.93886623852383   -3.57294666392735    7.64817007177148
C           6.15258780485786   -5.07961516963821    6.20948005254494
N           6.78049486971859   -4.92078531087515    7.39564712859225
C           7.19752232181398   -5.94086471510627    8.22730978817924
C           7.81980211552033   -5.91921767036793    9.44604457628465
C           7.99328297750698   -7.27705077870079    9.80801675453539
C           7.46916424818411   -8.01195313150541    8.79265679919846
O           6.98283163938602   -7.20835140612276    7.82639701916527
H           1.53448283074227    0.35603598946895   -1.04681457086843
H           0.89387235359886   -0.31134396413605    0.48901872284223
H           1.63685315455055   -1.39915267200028   -0.70049842406216
H           6.37094288673493   -1.80260321770162    6.50851316351119
H           7.41941764694513   -3.23776791348636    8.54478463181757
H           5.92122981957697   -6.04573110994476    5.80996340789089
H           8.11509248199449   -5.06174479300266   10.01244473372426
H           8.44720186962181   -7.64556895881570   10.70409649961563
H           7.38107948756875   -9.06784196353318    8.63741029328351
