24
         -50.171801124544          0.000463873463
C          -1.15065974203740   -0.33207963966750    0.00412388785681
C          -0.42050922610537    0.86614785627513   -0.00098645531011
C           0.92674488132198    0.66063585420537   -0.00354564951310
S           1.33636100586498   -1.00291484149569    0.00019629366901
C          -0.34229739218534   -1.44485817473726    0.00546301878216
C          -0.76989604537460   -2.80151903984126    0.01160585450181
S           0.32171890934321   -4.17081270073796    0.01537013720990
C          -1.15393133659960   -5.15811925672235    0.02458149365287
N          -2.23342758251445   -4.43389226311865    0.02330434758322
N          -2.02932575350749   -3.15017682194052    0.01623733669747
N          -0.99075508992815   -6.49169874017254    0.03255680662183
N          -2.04899759803225   -7.21472239367926    0.04352986135981
C          -1.84507986588423   -8.55394296747873    0.05307600217546
C          -0.63543796683412   -9.31992043201152    0.05248899646438
C          -0.99090900398100  -10.63402653899291    0.06668310398916
C          -2.90444007271502   -9.46192265055225    0.06783388087624
N          -2.35005807336769  -10.67592812965414    0.07549456882241
F          -3.06265948596766  -11.83961955044939    0.09087542719747
H          -2.22220137346447   -0.40389429094644    0.00693350654620
H          -0.87168467982046    1.84191993222206   -0.00260737802407
H           1.70889634083227    1.39378569527204   -0.00739913756597
H           0.35560911871290   -8.91521298663510    0.04263072757084
H          -0.40757849996710  -11.53227532660542    0.07136747692413
H          -3.96128146778893   -9.29538259253573    0.07301589191207
