26
         -49.440660481706          0.000492492154
C          -1.15072199895361   -0.34006881501601    0.00309138130126
C          -0.42071867726595    0.85842463559661   -0.00094255617862
C           0.92636605457430    0.65304731633544   -0.00166077001180
S           1.33595960769270   -1.01086364916074    0.00262984281895
C          -0.34248788576422   -1.45265561310863    0.00549871731757
C          -0.77184616566730   -2.80915968741857    0.01081761511801
S           0.31694827448115   -4.18144618159809    0.01723110667145
C          -1.16047735881460   -5.16437291945909    0.02335185408916
N          -2.23863837732886   -4.43845993874866    0.01938171098547
N          -2.03159457468132   -3.15437213882044    0.01254129997145
N          -1.00415999312275   -6.49969489948985    0.03108466704658
N          -2.07122210376455   -7.21026050631023    0.04242252641297
C          -1.88854588114817   -8.55098400834115    0.05105847641426
C          -0.72031005435271   -9.36786478079468    0.04921552515521
N          -1.04778097534123  -10.63478264439627    0.06302404494948
C          -2.93976078017981   -9.47432625120135    0.06720897454793
N          -2.38747949771043  -10.68803823438465    0.07382114493908
C          -3.04771518577302  -11.96042497097470    0.09190278556375
H          -2.22223665155287   -0.41217248388190    0.00443385815679
H          -0.87225801604640    1.83405803375295   -0.00314409643609
H           1.70854962929237    1.38614468101111   -0.00442613766365
H           0.30393451104338   -9.05577578405129    0.03852557766883
H          -3.99727982301267   -9.30857967698281    0.07388636897041
H          -4.12504065012017  -11.81175856181702    0.09312342336582
H          -2.75178078047234  -12.51695474351193    0.98245840332199
H          -2.75658264601089  -12.53924817722802   -0.78583574449625
