30
         -60.750136049649          0.000475657474
C          -1.23675708190714   -0.29309315211086    0.02150175254958
C          -0.32139949098236    0.77574385144843    0.04048926950970
C           0.92061269427024    0.20835915233837    0.06641300623170
O           0.83772937030536   -1.12609769275999    0.06517711234399
C          -0.47577569694320   -1.44214532967043    0.03756230028374
C          -0.88544265298795   -2.80589549689848    0.02981294178970
S           0.23709201561912   -4.14560366684257    0.05422081542690
C          -1.21646460508719   -5.16388618459449    0.02589679922066
N          -2.31275704316070   -4.46484214105422    0.00260500326511
N          -2.13764381803932   -3.17663943337576    0.00455296162701
N          -1.03558032762994   -6.49707243339989    0.03248695480300
N          -2.09395279836497   -7.22021572650454    0.01417838294654
C          -1.90330487407013   -8.56007163081011    0.02236556983145
C          -0.72691337277460   -9.37181713599713    0.04633499867911
N          -1.03817811415728  -10.63995751104992    0.04641106232004
C          -2.94927390923075   -9.48172084620390    0.00797461648363
N          -2.38495724594937  -10.70117253425279    0.02328740080219
C          -3.02630054897191  -11.92265240473811    0.01860442497991
C          -2.51916233217475  -13.19211413493421    0.03392463342583
C          -3.64875190292225  -14.04453805098259    0.01955763744593
C          -4.74041435096836  -13.23379791275095   -0.00304085707149
O          -4.37195960334347  -11.93697832251055   -0.00385303201653
H          -2.30525399766828   -0.25173507824933   -0.00075718048618
H          -0.55033686146594    1.82142515699784    0.03563249394442
H           1.90277399270401    0.63815976262050    0.08696908756582
H           0.29458961262195   -9.05085224990982    0.06261935286548
H          -4.00880276773801   -9.33513671550612   -0.01100961904291
H          -1.48473098069459  -13.46038118099597    0.05272799150748
H          -3.64282937226857  -15.11448267550356    0.02542689215697
H          -5.79158393601980  -13.43916828179868   -0.01949277338869
