30
         -60.046276420755          0.000783643300
C          -0.98237116569172   -0.31594736320693   -0.43329035486632
C          -0.16616591164575    0.73584627711741   -0.12265159882441
C           0.92476352970989    0.15719300472267    0.56012899196347
N           0.78614706405811   -1.14249779791372    0.65844024187602
N          -0.37219592460798   -1.43238162631168    0.05605941203360
C          -0.83553331856468   -2.71224454310691   -0.02136471060487
S           0.03122567002805   -4.04596603927740    0.70843820288304
C          -1.32679481185229   -5.02718210272080    0.10680491126030
N          -2.20684582455469   -4.32678270663644   -0.55198067223997
N          -1.92860334727061   -3.04899885166275   -0.62824416669567
N          -1.22592557609146   -6.35444033777080    0.15431338286083
N          -2.22761374384461   -7.10731460622172    0.33172042804598
C          -2.03585449695657   -8.43820606203781    0.14762917931898
C          -0.90778812627565   -9.19132476883875   -0.29114880828221
N          -1.19582550619581  -10.46536523850542   -0.33987084849939
C          -3.02861475224943   -9.39706713067309    0.35405965747232
N          -2.48211259346491  -10.58297743042449    0.05068808003358
C          -3.06464658602681  -11.83408885798946    0.08954767298743
C          -4.32119280254820  -12.27965028510219    0.42726297487791
N          -4.36902618329173  -13.62503472448371    0.28956940903480
C          -3.18798406845094  -13.99828872995875   -0.11771629467460
N          -2.34848153641176  -12.94578245511455   -0.25745978383948
H          -1.38544284958555  -12.92351052152453   -0.55416219208115
H          -1.91987823831057   -0.38627360408062   -0.94381156165874
H          -0.31695955151122    1.77130648614027   -0.34648619923601
H           1.78716570445396    0.64156872165150    0.97238437121290
H           0.06524776147714   -8.83057711544350   -0.55590195414112
H          -4.04057856040644   -9.28774971778472    0.68150073123491
H          -5.17582029543529  -11.72419573311551    0.75299574041040
H          -2.90413395848136  -15.01069613972914   -0.32002424186435
