30
         -60.066114581650          0.000733721265
C           0.87335851400549   -0.91563342307266   -0.51993341349819
N           0.86132640298866    0.42071511189564   -0.34085729102858
C          -0.27550818249156    0.69840573740397    0.24415312790806
N          -1.01704797999532   -0.40740351141620    0.45787134777567
H          -1.92435494949901   -0.49199926923543    0.88698900325997
C          -0.29460253380011   -1.46887179551051   -0.02888984311990
C          -0.78106988096383   -2.80329285617085    0.02998073223054
S           0.09030770087770   -4.17799632609329   -0.62998955278152
C          -1.31724571978920   -5.12623141662582   -0.09608248930136
N          -2.21642124714955   -4.39668067657361    0.50472577714526
N          -1.91440976361222   -3.12851936660167    0.57859883157930
N          -1.23331666109639   -6.45311029853321   -0.12160822154888
N          -2.23349600072825   -7.19984001917625   -0.33427469148835
C          -2.05836364975550   -8.52873825248825   -0.11865747817492
C          -0.95370722778132   -9.27655819971378    0.38310392977582
N          -1.24830175032661  -10.54872671713039    0.44304323752757
C          -3.04453515783025   -9.48792704787398   -0.35079871051819
N          -2.51630568227732  -10.66985106364415   -0.00121953342310
C          -3.10205166941030  -11.91948459357421   -0.03719395315233
C          -4.34442827258945  -12.36891802325419   -0.41938282721933
N          -4.40447441773183  -13.71027748072719   -0.24934659040710
C          -3.24428105484774  -14.07688092259873    0.21944936993322
N          -2.40693835503370  -13.02399395042348    0.36990330545323
H          -1.45755102915743  -12.99582567754789    0.70759184920836
H           1.70193478857293   -1.41284151414004   -0.98301477666477
H          -0.58924192949059    1.68404315488930    0.52390347100477
H           0.00810720800228   -8.91362010320176    0.68323039789865
H          -4.04064739072719   -9.38223705276691   -0.72488058831385
H          -5.18106262743795  -11.81927884960754   -0.79761318545436
H          -2.97462148092567  -15.08463559648682    0.46046876539317
