26
         -49.924657454433          0.000516054479
C           0.91103315253401   -0.84143869193246   -0.00738941881870
N           0.78429103773231    0.50029334147211   -0.01155778292137
C          -0.50164483340647    0.74412592902283   -0.00627157019134
N          -1.23010432011066   -0.38935093015658    0.00124573043593
H          -2.23087560449567   -0.50467731716323    0.00653397929902
C          -0.33860295827159   -1.43407077640543    0.00069089559093
C          -0.76825469269806   -2.78967600661528    0.00836891177737
S           0.31979744068683   -4.15392951146469    0.00820617279189
C          -1.16326426542564   -5.14026968403303    0.02156123951886
N          -2.23968682324600   -4.41608228825818    0.02434510585645
N          -2.03029537618643   -3.12892304619399    0.01712483724047
N          -1.00484428048549   -6.47556280023375    0.02900507089295
N          -2.07124164883808   -7.18703072502841    0.03982810691199
C          -1.88945399485558   -8.52795017445418    0.04942734388636
C          -0.72251411848771   -9.34654454203428    0.04712305978909
N          -1.05221967238381  -10.61271837615243    0.06092025904798
C          -2.94237477909983   -9.44963441875426    0.06603993976665
N          -2.39230000159064  -10.66395053084381    0.07249190006482
C          -3.05411788841889  -11.93570870300545    0.09079064730297
H           1.87184768677694   -1.31526387318704   -0.01021170165837
H          -0.93255127375202    1.72533249071459   -0.00765702873594
H           0.30210182299047   -9.03581223525629    0.03565245549612
H          -3.99940594990597   -9.28116491831245    0.07336922455538
H          -4.13127565249961  -11.78587090436375    0.09232342093246
H          -2.75847632830314  -12.49248725502325    0.98121423066810
H          -2.76382667825923  -12.51473405233732   -0.78702502950006
