25
         -50.161098453230          0.000568958659
C           0.93525874197235   -0.86947279551467    0.03660813465606
N           0.82243601818638    0.47342530494328    0.04195440693089
C          -0.46077739746537    0.73064563668799    0.02497239419877
N          -1.20079439484789   -0.39515321194425    0.00792107289752
H          -2.20257876818470   -0.49973882516591   -0.00810736066423
C          -0.32031555314106   -1.44905943826040    0.01512171636797
C          -0.76483672084499   -2.79972777448666    0.00205820989981
S           0.30715642796023   -4.17648558620844    0.02500760850652
C          -1.18671187484222   -5.14588786221554   -0.00637353641040
N          -2.25473656518609   -4.40921525155636   -0.03167735598024
N          -2.03044234139626   -3.12482544534413   -0.02723419657219
N          -1.04079124488681   -6.48162419245412   -0.00866608802873
N          -2.11093923808667   -7.18850016178813   -0.00564966969330
C          -1.92980904437315   -8.52942514796998   -0.00351722477009
C          -0.75917153386397   -9.33571257880068    0.05164284132769
N          -1.07936026335653  -10.60775463220127    0.06751296989353
C          -2.98172418114090   -9.45555241743236   -0.03484105432513
N          -2.41348499699468  -10.65933484762817    0.00792524441923
N          -3.05309149845926  -11.87852416774703   -0.05072439899769
H           1.89104352140239   -1.35318245510193    0.04729757305218
H          -0.88159401593867    1.71618364136128    0.02461047896548
H           0.26209353561131   -9.01685222595273    0.08731385918774
H          -4.03990404421326   -9.30978384288141   -0.08265752058399
H          -3.64173854145104  -12.03642201286541    0.76451146427631
H          -2.34226602645914  -12.60246970947291   -0.11350956855366
