23
         -46.267764759714          0.000447620668
H           0.94459597810575   -0.05167513342491   -0.26247357149708
C           1.99863229093680    0.08790975728609   -0.13636855838831
S           2.88866898764228    1.25284523980057   -1.07721221827297
C           4.30316436033938    0.64707903642053   -0.18972341361592
N           3.99012556666775   -0.26896443187315    0.68379726100167
N           2.71106645994469   -0.56412832606339    0.70526061295359
N           5.44959488340404    1.31488967188906   -0.28651037384367
N           6.58330995301035    0.76175887507725   -0.34379287512767
C           7.66765141265929    1.56946746588272   -0.23108476686070
C           7.79795778859119    2.97270494692847   -0.00395823089523
N           9.05584296702768    3.31619036502148    0.05086684131222
C           8.98349317156645    1.11476395875684   -0.30420336113051
N           9.77004293740393    2.18735244627284   -0.12830674945982
C          11.14943216334817    2.23666100399152   -0.10476621789772
C          11.92110645201375    3.34527193070227    0.09668585078590
C          13.29768228144015    3.04292490776917    0.06661817990715
C          13.54641181380088    1.72666410918965   -0.15461799835135
S          12.10472908882385    0.80712410025127   -0.33474529612096
H           7.01805146814447    3.69799042403442    0.10955041754700
H           9.36930874916233    0.12825446062475   -0.45888546211453
H          11.50388363492920    4.32121574060935    0.25763418624977
H          14.06998563485055    3.77714572119066    0.20526021142885
H          14.49224195618734    1.22797372966226   -0.22432446760934
