23
         -46.749168784937          0.000929771988
C           0.92657234869388   -0.82952257235922   -0.00439022145863
N           0.80321275730877    0.51193421803432   -0.00906081063350
C          -0.48230034983111    0.75924679006589   -0.00505909549282
N          -1.21377530059308   -0.37195316142413    0.00204138603245
H          -2.21491569520383   -0.48435091002610    0.00634994565718
C          -0.32499192859659   -1.41926602940839    0.00261854005946
C          -0.75643116627205   -2.77389855394311    0.01011622104882
S           0.32996416417283   -4.13839323426370    0.01114442917618
C          -1.15427380924258   -5.12360689567704    0.02277726318498
N          -2.22998598937483   -4.39811567033355    0.02461501691376
N          -2.01964146085111   -3.11218703031175    0.01770496878539
N          -0.99529564473646   -6.45873210310134    0.03036440964764
N          -2.05603392067800   -7.17544720094938    0.03771998435358
C          -1.85993024810199   -8.51806559252522    0.04706197092973
C          -0.67746779321856   -9.31726304465908    0.04700044795763
N          -0.98221801446673  -10.58900917953605    0.05809510287287
C          -2.89910526088831   -9.45039565206724    0.05948632537805
N          -2.32034401284322  -10.65513586745479    0.06584171508645
H          -2.76936189614935  -11.55853172547323    0.07529890296377
H           1.88606225459458   -1.30607034016343   -0.00616385580308
H          -0.91005632239990    1.74180023109560   -0.00712391201704
H           0.33997402904791   -8.98451562042260    0.03881724428937
H          -3.95874674037026   -9.30193085509645    0.06417402106776
