18
         -41.046020488925          0.000685767401
N           1.41413864505886    0.03926336579165    0.13190236949118
C           2.75288485251486   -0.00898848689999    0.07630342244770
S           3.75782633732804    1.42521471655691    0.09503836183545
C           5.12662021592876    0.26462598114526    0.06142662065587
N           4.72200989468186   -0.96271945730191    0.03868052419619
N           3.42796118198319   -1.12809373939411    0.04457832412658
N           6.35789253561630    0.79232583438016    0.05734903842552
N           7.35331108436117   -0.01132754966610    0.04817833844187
C           8.57951593441112    0.58082033355858    0.04093765461691
C           8.98324141476328    1.94540189239147    0.04338893701838
N          10.29434822441458    2.04091917300950    0.03579105058701
C           9.77907691633193   -0.13736172492586    0.03072280312906
N          10.72201279801596    0.80151620896382    0.02827034275570
F          12.05718969098688    0.55897175904211    0.01905818209449
H           0.93503402028464    0.91142001842514    0.00159988649864
H           0.91135102179580   -0.82269495187811    0.00843477974409
H           8.36758144457197    2.82107219147937    0.05091973077829
H           9.98221378695077   -1.18677556467789    0.02542963315710
