30
         -59.924039146311          0.000657182292
C          -1.14693611998179   -0.38072911738823    0.01156823382402
C          -0.41518165039040    0.81598400631538    0.03112597724698
C           0.93116182818526    0.60768480341726    0.06857936663111
S           1.33758526482378   -1.05658849459287    0.08091011840048
C          -0.34089592816503   -1.49532106907097    0.03469106913345
C          -0.77592264505368   -2.84970136494937    0.02432317060894
S           0.30267993408289   -4.22809710290323    0.05782895224649
C          -1.18215236117328   -5.20208759108407    0.02073057946673
N          -2.25442629087009   -4.46765126811328   -0.01275560157060
N          -2.03856365613203   -3.18645804631545   -0.01097437711774
N          -1.03540709510746   -6.53718834195145    0.02524283433087
N          -2.10639076988149   -7.24270309292619    0.01839490105883
C          -1.92635204986171   -8.58495807601126    0.02037508471916
C          -0.74969212577744   -9.39635532618557    0.03179749241969
N          -1.06044975452544  -10.66437256740619    0.03479875539974
C          -2.97249240208343   -9.50615068886882    0.01600258546184
N          -2.40754542957474  -10.72571579390197    0.02490560701347
C          -3.04483136059722  -11.94919295564155    0.02773474762554
C          -2.52999786048951  -13.21578282440185    0.04017043515951
C          -3.65427808550349  -14.07499459344950    0.03855291484291
C          -4.75103213506553  -13.27083091112072    0.02536704217837
O          -4.39059498202494  -11.97161796248975    0.01871503068547
H          -2.21803150686854   -0.45172750860553   -0.01797103450696
H          -0.86457704268672    1.79243566530026    0.01812748381095
H           1.71438670695891    1.33944065356110    0.08985590722033
H           0.27104360161407   -9.07264690765454    0.03864649764175
H          -4.03208977138918   -9.35907712785442    0.00733398981683
H          -1.49351061394227  -13.47672277115298    0.04926562221756
H          -3.64158919429642  -15.14491613006489    0.04635888326662
H          -5.80104650422307  -13.48276749448926    0.01969773076766
