25
         -49.711782715611          0.000455925372
N           1.34126493721593    0.15489870330252    0.01481027798586
C           2.68206868746368    0.07028758777026   -0.03312535079628
S           3.72013294055991    1.48469713057463   -0.02814258723978
C           5.06191527838445    0.29341877836507   -0.02448979971209
N           4.63162404140391   -0.92417632227833   -0.02951833240029
N           3.33046813087802   -1.06066377187368   -0.03641063241707
N           6.30678814543267    0.79174487444208   -0.02437608517718
N           7.27628805923278   -0.04692793269851   -0.01350155330720
C           8.52130568629569    0.49028383629486   -0.01915259252099
C           8.99069254518242    1.83903656816669   -0.03197254108368
N          10.29631672789377    1.87630255465778   -0.03407595226559
C           9.68716382524762   -0.27144738609100   -0.01305025293336
N          10.71486782292980    0.59458789690793   -0.02258447199374
C          12.06404535590376    0.30849335088882   -0.02352875977001
C          13.09104840608624    1.20822728693713   -0.03181158158711
C          14.35042316602645    0.57378898710907   -0.03148134059626
C          14.26195368055543   -0.78058317876285   -0.02347495219792
S          12.63174190963353   -1.33083799623850   -0.01532877037822
H           0.89486633124110    1.03192000993754   -0.18438122894184
H           0.82505981927527   -0.69549845964542   -0.13428892243138
H           8.40922125085087    2.73843574683236   -0.03923023977262
H           9.82137237824556   -1.33334069116155   -0.00334156223034
H          12.93126817118343    2.26972832314480   -0.03759218882862
H          15.28362142982853    1.10681899025356   -0.03725483492343
H          15.05338127304883   -1.50286488683548   -0.02156574448086
