25
         -50.505519284191          0.000876822538
C          -1.10504695958241   -0.22958704783889   -0.36938120694626
C          -0.19278197073233    0.81382589728525   -0.11922883354704
C           0.92467143887339    0.22369928583720    0.39593764571083
O           0.76899044696945   -1.10301854273306    0.48057028452908
C          -0.46751879050410   -1.38807235816662    0.01578385002388
C          -0.91945179935667   -2.73839821921730   -0.01425329979307
S           0.06766853707878   -4.07777749679909    0.56341953670887
C          -1.33488687317653   -5.08268738155762    0.14986756006028
N          -2.31622780134961   -4.39137674191869   -0.36923742753740
N          -2.07871119370123   -3.11236952071230   -0.46265864277280
N          -1.19486406145482   -6.40407553645405    0.15122968211898
N          -2.11763812905152   -7.20295643264500    0.48293097020509
C          -1.91805311230959   -8.51843820413195    0.22009598000395
C          -0.89346150258030   -9.20596019850839   -0.48429982601435
N          -1.14699165241377  -10.49305062750618   -0.51880899576989
C          -2.80365433834378   -9.53077405635094    0.61290845115558
N          -2.29126306699541  -10.66835754614628    0.14640920254364
N          -2.79342381325584  -11.93800996807125    0.33091021514126
H          -2.09292861127116   -0.16405053030525   -0.77394149015024
H          -0.34358368450140    1.85870786284496   -0.29679309368261
H           1.86059290392287    0.62795331823293    0.72744799949653
H          -0.01834124853784   -8.79883412125182   -0.94810676337319
H          -3.71856929224085   -9.48200911236188    1.16443957659112
H          -3.69013176394164  -12.06110620843675   -0.13351668322972
H          -2.11579366154368  -12.59937651309269   -0.03818469147251
