22
         -44.090017981836          0.000866910450
C           1.32306164848379   -0.08833251637261    0.11806190217614
O           2.69194459165124   -0.24205520848408   -0.22617835896711
C           3.21163617364550   -1.42553735264317    0.04127575514988
S           4.89138479257223   -1.73795751712393   -0.37393993319021
C           4.56592845832691   -3.36668856851966    0.28391974170651
N           3.35669737125454   -3.49725531727090    0.73063350402800
N           2.60886480361022   -2.41569235951739    0.60425851478991
N           5.60207271769241   -4.18473530024276    0.47613126151266
N           5.50053962297456   -5.44144134903819    0.35260451509536
C           6.55848028572557   -6.18273339825483    0.76839516150575
C           7.76173708774120   -5.83706896946773    1.44049388242767
N           8.47742826265485   -6.91029482854248    1.67973829363185
C           6.63651750242560   -7.57303472831886    0.61889510178406
N           7.79029422702555   -7.93897465373014    1.17617415586788
N           8.31006138332344   -9.21464191420836    1.22765530145158
H           1.06778537986022    0.93819065273774   -0.13435705310854
H           1.17554674875625   -0.27256478271825    1.18404849630840
H           0.70604705428579   -0.78866936568021   -0.44864046461903
H           8.09674976787674   -4.86609063466822    1.74229389838011
H           5.95831773952773   -8.26781047919659    0.17120411241408
H           7.77594297022132   -9.81314490572401    1.85495497549483
H           9.27190141036410   -9.14884650301617    1.55107723615861
