16
         -33.432835003952          0.000713822551
H           0.94346272751338   -0.33050432652066    0.08078755884660
C           1.99841245761481   -0.14345046732517    0.07373247948115
S           2.64720509594821    1.45737819507530    0.08325295370779
C           4.22783212178714    0.64580507255119    0.06230573638466
N           4.11746186817827   -0.64577960200263    0.05337723945406
N           2.88227007232944   -1.08125169377059    0.06010165215551
N           5.31833868330878    1.43879083900447    0.06496484301582
N           6.45846733413964    0.86119945406779    0.03757086178210
C           7.53753182451737    1.68222817784328    0.04543799290355
C           7.66355199993634    3.10419119604154    0.07341265101941
N           8.92337202983910    3.45334911181665    0.06792853207571
C           8.85716349085715    1.22530116475074    0.02298229375500
N           9.62966014630344    2.31492419671253    0.03805537374504
H          10.63758747359174    2.36063115969113    0.02928222981771
H           6.87931249659868    3.83256164520020    0.09525768480876
H           9.24069017753652    0.22662587686423   -0.00072008295287
