30
         -59.583531345283          0.000549653074
C           0.88846128776075   -0.89861421436855    0.56299583938546
N           0.88817887606319    0.43739785164507    0.38081311296082
C          -0.24764990081268    0.72416576473615   -0.20118508611534
N          -0.99994248469194   -0.37528643252384   -0.40990289135941
H          -1.90938132093282   -0.45218933663574   -0.83578201377925
C          -0.28598347630850   -1.44231315086664    0.07672852483282
C          -0.78275300611268   -2.77322053424355    0.02218838315858
S           0.08577430034671   -4.15261861355343    0.67615006069707
C          -1.33069796316233   -5.09334505572266    0.15167870866900
N          -2.23080854592505   -4.35847889986780   -0.44173370813972
N          -1.92221094760981   -3.09170679963475   -0.51731705557239
N          -1.24987524343717   -6.41965379467687    0.17771476132839
N          -2.24716860817165   -7.16801639631420    0.39893697875631
C          -2.07120699602839   -8.49628777362702    0.18623986983763
C          -0.96288744494340   -9.24922650564319   -0.30611062092915
N          -1.25583948430378  -10.52002068160561   -0.36128240097059
C          -3.05596766687632   -9.45535639622213    0.41649318948042
N          -2.52549725388555  -10.64000862513558    0.07453000470961
C          -3.12261387155125  -11.88347997843429    0.11708053391184
C          -2.55755465673321  -13.07159678301580   -0.24865394717410
C          -3.44787684592044  -14.15251886239309   -0.08604327021900
C          -4.65937896976116  -13.77338947912438    0.39476019428845
S          -4.75650956008760  -12.07810092006690    0.66672101624069
H           1.71338878918014   -1.40280719757354    1.02434203614084
H          -0.55307117257296    1.71195727482167   -0.48264767419297
H           0.00127303258109   -8.88761690932798   -0.60075511611962
H          -4.05601331464438   -9.34903902805755    0.78314857742696
H          -1.55119024584061  -13.14562017762928   -0.61481427371584
H          -3.19417779425769  -15.17036649281314   -0.31905903993987
H          -5.51368951136051  -14.38320185212626    0.61012530640344
