19
         -41.398688596564          0.000748195381
N           1.54280958387416    0.11216540935953    0.05244524153534
C           2.87880298194529    0.03986797173037    0.01326073223512
S           3.90926562016902    1.45647873524325    0.02295970095855
C           5.25659116966866    0.27228179368971    0.00521803071976
N           4.83051300435498   -0.94942118262128   -0.00691543626710
N           3.53588406948458   -1.09178551202366   -0.00357348057315
N           6.49598750899540    0.77624566289504    0.00462308986224
N           7.48092953327637   -0.04050799608099   -0.00573209693437
C           8.71161683895836    0.54426466152609   -0.00820941045090
C           9.11533460764426    1.92076494650727   -0.00733511906244
N          10.41061229917138    2.03003708716152   -0.01196945317920
C           9.90148347272810   -0.16183523386891   -0.01417595716358
N          10.89670713643545    0.76538814669474   -0.01594454470437
C          12.20118098847356    0.50748432973625   -0.02129481196598
N          13.31789862355286    0.26197165706425   -0.02603115033404
H           1.07704423031641    0.99470579002165   -0.04999497081193
H           1.02027383115275   -0.74133634801029   -0.04041617626886
H           8.48615817006804    2.78748318873215   -0.00345617721578
H          10.09433632973037   -1.21480310775676   -0.01647801037883
