18
         -36.879486061684          0.000529134469
N           1.38493673652929    0.04547718568404    0.14859644888835
C           2.72599694726312   -0.01050956991056    0.08258209114383
S           3.73403707941034    1.42363883817048    0.09698187707063
C           5.10090675809511    0.26052635254743    0.06397643074652
N           4.69528389924104   -0.96534735767112    0.04452016461293
N           3.39724557926226   -1.12850460210072    0.05231915127558
N           6.33115628705110    0.79200449335786    0.06126222665144
N           7.33112876797494   -0.00751073386681    0.04501757972049
C           8.55270414443448    0.58905253839759    0.04244027617058
C           8.94975701266894    1.95892619372932    0.05100572181028
N          10.25453748694951    2.06146660316622    0.04443218172136
C           9.75794750958337   -0.11244771568824    0.03018294125490
N          10.72835530134286    0.80928206562123    0.03221348926985
H          11.72566576377226    0.65867110283482    0.02595094105747
H           0.91736204884093    0.91748099855650   -0.02221768892973
H           0.88141529662327   -0.81188873145914   -0.00323370109977
H           8.32057977078558    2.82505049009985    0.06119545681508
H           9.94498361017156   -1.16592815146875    0.02119441182016
