21
         -40.054590177552          0.000570580024
N           1.34075142636002    0.20204281358360    0.12004406272844
C           2.68113361125436    0.11773360546611    0.05599271191404
S           3.71495091696091    1.53410409737561    0.04674123765345
C           5.06111261290131    0.34513063356183    0.03602556823955
N           4.63328185374831   -0.87263672984460    0.03689808128162
N           3.33087057980665   -1.01184218686110    0.04587188234949
N           6.29854596766985    0.85812725210077    0.03259327961561
N           7.28970363997308    0.04541973666095    0.02621497201194
C           8.51582370438606    0.62744464679344    0.02753339909684
C           8.92945594021475    1.99002785005669    0.02756497641409
N          10.23631586377590    2.07320619868522    0.02897221921650
C           9.71768369365591   -0.08531133580007    0.02919978861395
N          10.70215349658271    0.81690076913925    0.03052627725366
C          12.11682857822948    0.58381088383238    0.03401113607587
H           0.89178425359378    1.08123718728031   -0.06333410783616
H           0.81946752563165   -0.64615569638637   -0.02163600723544
H           8.31383109511593    2.86605516359365    0.02589867398876
H           9.89009378271924   -1.14170801776690    0.03066294372931
H          12.30969955785681   -0.48642224470925    0.02995212473802
H          12.56312967055783    1.03475831392164    0.92168645854313
H          12.56837222900544    1.04261705931690   -0.84688967839266
