23
         -47.091641894066          0.000716514073
H           1.00150599680100   -0.30500642428492   -0.09364605518994
C           2.05885563600739   -0.13216005750053   -0.08928827533071
S           2.72934512964660    1.45962655287204   -0.10714769693806
C           4.29967595071665    0.62616609353042   -0.08847362816528
N           4.17088529621039   -0.66363939267396   -0.07133501451198
N           2.92986255966108   -1.08189134012961   -0.07220560120876
N           5.39948302588410    1.40442366747482   -0.08522659772026
N           6.53433679730930    0.81159335794517   -0.08937088389288
C           7.62001679830811    1.61971901658650   -0.07880419964641
C           7.75546333318939    3.04297162010921   -0.07569287000271
N           9.01367246872703    3.38838263625330   -0.06735456685223
C           8.93499722225770    1.15443955349197   -0.07090372250538
N           9.72363217336346    2.24149449724266   -0.06327627335780
C          11.10251046347504    2.28650573225484   -0.05153012528578
C          11.95085736166297    3.35887401774946   -0.04460250806396
C          13.25227815178488    2.80396666032921   -0.03224810293744
C          13.09253364507281    1.45307712191614   -0.03263286760708
O          11.78477386885604    1.12643803788463   -0.04440283207232
H           6.97585900876870    3.77700003750429   -0.08133448662493
H           9.32269432199306    0.15726996512986   -0.06882229920292
H          11.66733020149943    4.38947782947437   -0.04807547141319
H          14.17702103390619    3.34211318123087   -0.02417528573398
H          13.79455955489870    0.64400763560927   -0.02542063573598
