23
         -51.257275383561          0.000877423888
C          -1.23878967129592   -0.23043447351212   -0.00190107943738
C          -0.33356216893913    0.84624351303491   -0.00701512471810
C           0.91444568177753    0.29014640471218   -0.00114342227219
O           0.84436633962892   -1.04437030223643    0.00777243867818
C          -0.46639930386187   -1.37294558315315    0.00690801516514
C          -0.86432652072722   -2.73892436218062    0.01485711783011
S           0.26516810669756   -4.07079014237941    0.02598215029171
C          -1.18177819486782   -5.09770022981510    0.02956244312402
N          -2.28344891614275   -4.40480811503930    0.02281430440253
N          -2.11658053106993   -3.11821586902120    0.01474319132667
N          -0.99389727318713   -6.42933490993120    0.03808544126401
N          -2.04130084288856   -7.16360106763422    0.04237303389603
C          -1.82185367432413   -8.50483676756570    0.05032498784706
C          -0.62843084775089   -9.28187954034998    0.05561881465717
N          -0.91216496787566  -10.56472820980388    0.06346952289463
C          -2.85337674659037   -9.45020842549863    0.05555758422995
N          -2.22272976936096  -10.62057074535072    0.06302124909780
F          -2.83619421129648  -11.83014966362334    0.07016443411802
H          -2.30790695208546   -0.19979503505953   -0.00416183067290
H          -0.57250403392565    1.88960957629755   -0.01417880896423
H           1.89245306293379    0.72976480929780   -0.00198705571403
H           0.38664892104176   -8.94186271943417    0.05414128487886
H          -3.91728748588974   -9.34638814175380    0.05437130807691
