23
         -50.914926010881          0.000228167831
C           0.92674695998394   -0.82499055846529   -0.00281848321439
N           0.79984349191354    0.51516438238915   -0.00849694762126
C          -0.48669954350199    0.75976470536307   -0.00526198728042
N          -1.21548502908244   -0.37265023726717    0.00228602289120
H          -2.21659587181944   -0.48637920190962    0.00621202839001
C          -0.32441581294453   -1.41803721677899    0.00401920730166
C          -0.75286286138302   -2.77232947660940    0.01233065031127
S           0.32977332011490   -4.13746857060918    0.01475048149725
C          -1.15515196700320   -5.12025589782549    0.02656198775943
N          -2.23056006281760   -4.39236720623885    0.02748196155416
N          -2.01888961760644   -3.10970129567456    0.01974573093832
N          -1.00100443055037   -6.45517290299459    0.03542534923390
N          -2.06146828699472   -7.17001182131228    0.04251712022964
C          -1.85999943263331   -8.51454538182763    0.05330272993148
C          -0.67470201928185   -9.30383864031146    0.05475758357982
N          -0.97183309983710  -10.58321181553533    0.06693936093165
C          -2.90147388508177   -9.44894725287142    0.06586419174152
N          -2.28310475120262  -10.62578279917618    0.07334334613528
F          -2.90727343016578  -11.82898097185655    0.08677334478757
H           1.88769032886735   -1.29864433917134   -0.00380901417515
H          -0.91646887162095    1.74143918949343   -0.00821340831672
H           0.34351281748642   -8.97347738713624    0.04700610452067
H          -3.96409794483903   -9.33200530367409    0.06990263887310
