26
         -50.269193333529          0.000452828940
C          -1.08858614865102   -0.23583166875231   -0.37287365973120
C          -0.18337470669450    0.80786089308871   -0.09989463944238
C           0.92239806996939    0.21761169074716    0.44014389439238
O           0.76593738705773   -1.10940427094041    0.51905629111957
C          -0.45923797207173   -1.39447736649960    0.02524739800922
C          -0.91324596852963   -2.74346350542459   -0.01899379897281
S           0.05964792264192   -4.09200301289632    0.56493352737696
C          -1.34042910149392   -5.08799071955301    0.12281617233575
N          -2.31136673674512   -4.38856626036647   -0.40574720946010
N          -2.06643634538273   -3.11020163150998   -0.48712541055828
N          -1.20688838335593   -6.40953746672465    0.11200538414818
N          -2.13059016241466   -7.21038165624067    0.43207010978073
C          -1.93571210161813   -8.52323294243960    0.14977207253884
C          -0.91026225515270   -9.21310164526243   -0.55763025116276
N          -1.17335385009336  -10.49441102350089   -0.60773988729217
C          -2.83121238226600   -9.53428694248061    0.51150534362894
N          -2.33215955514085  -10.67727503460834    0.03779731767837
C          -2.87448015516498  -11.99832252368392    0.16851291467931
H          -2.06682895307252   -0.17097287284132   -0.80011503367526
H          -0.33087724776705    1.85291000887956   -0.27913985229300
H           1.84979397829361    0.62306046165138    0.79418954456897
H          -0.02981246343051   -8.80581169056580   -1.01142165946821
H          -3.75226462982480   -9.47531074807803    1.05394288124550
H          -3.95677568988582  -11.94637354927823    0.27068828875933
H          -2.45312540095288  -12.50050423087884    1.04253193602796
H          -2.61111714825622  -12.56972229184023   -0.72013167423605
