24
         -51.611022796916          0.000715282417
C          -1.14361972244035   -0.24371600316153    0.30745694461390
C          -0.21797934089434    0.79601226030982    0.10272048184062
C           0.93418251070763    0.19827537580815   -0.32323068364477
O           0.78659970374459   -1.12840252712995   -0.39633486025562
C          -0.47882752911571   -1.40865881572892   -0.01260729030816
C          -0.92979905065773   -2.75714616422911    0.01707056519395
S           0.08642147465263   -4.10860710494891   -0.45760068787116
C          -1.34009275644627   -5.10172877021358   -0.10626193492579
N          -2.35160313535021   -4.39515865273962    0.32950437026673
N          -2.11956394421390   -3.11964379179553    0.40463309991209
N          -1.19881864602547   -6.42409890959183   -0.07580577791024
N          -2.15725677978320   -7.21292009488785   -0.32766613912492
C          -1.93032963655108   -8.52964459920670   -0.05720080468877
C          -0.80264289507561   -9.20362185025078    0.51784190606026
N          -1.01869396455956  -10.48186351996196    0.60813031628954
C          -2.84703470892416   -9.53824456622146   -0.30030122740715
N          -2.26176740206805  -10.69209500601564    0.11394108844574
C          -2.80372052855857  -11.90715622936895    0.06031431859175
N          -3.28427277898688  -12.94297402956595    0.00669437125478
H          -2.15730596279311   -0.17406645279051    0.64171524767421
H          -0.38098611763571    1.84342101446563    0.25131620494128
H           1.89019800842694    0.60058050600554   -0.59515552190085
H           0.12206312051647   -8.77336928873096    0.84577231706272
H          -3.83298991796933   -9.50728278005639   -0.71691630410835
