20
         -40.291854955051          0.000833333774
N           1.34721784106906    0.22837067158900    0.11935304372546
C           2.69012508886514    0.10485919662974    0.10280915090821
S           3.73811834746143    1.35657178887099   -0.55844706687073
C           5.07139510535554    0.27598791981659   -0.04277462653819
N           4.63889654060130   -0.79947406192282    0.53336066179442
N           3.33134514919595   -0.89366418452789    0.62561908181609
N           6.31159831785402    0.76062106812912   -0.10648261660716
N           7.31247605753828   -0.01900755053247   -0.20132674395220
C           8.53460620223120    0.55731794456840   -0.06427263496307
C           8.93210332849344    1.87883108971246    0.27272816002675
N          10.24069172838939    1.96405168780071    0.33142805836084
C           9.74113425675893   -0.13561896661832   -0.21419633553476
N          10.70783770013324    0.74944767403725    0.03241915414585
N          12.06738812540810    0.52382279243460   -0.03555158198466
H           0.91986286147658    0.90087158883771   -0.49241380305251
H           0.82583995863074   -0.60308301491032    0.34108035638304
H           8.31046505467717    2.72851573957534    0.46722311568212
H           9.93645605363551   -1.15658469141608   -0.46426254344472
H          12.38782143014457   -0.06353088219138    0.73208237244904
H          12.53470085208014    1.42569419011726    0.00908479765624
