30
         -59.582263920537          0.000849907050
C          -0.97002214341222   -0.36808821440676   -0.41531303556003
C          -0.25812533750254    0.81954607520313   -0.18632160400275
C           0.91400196504826    0.61117896994599    0.47632764717333
S           1.17784819236112   -1.04412788416043    0.83548028852780
C          -0.32414498912362   -1.47677445345046    0.08022522475570
C          -0.78272638273747   -2.82097559695788    0.01458493987311
S           0.07842631336401   -4.18652757375170    0.72661402862867
C          -1.28892172845059   -5.15436481705979    0.14734957319645
N          -2.17246801518591   -4.44103101287048   -0.50119439479122
N          -1.88580086656426   -3.17377886871953   -0.57590950635745
N          -1.19813600566907   -6.48026287748635    0.19043654914560
N          -2.20598263387596   -7.22679151300859    0.36345417260964
C          -2.02769961662800   -8.55771342187917    0.16755014189146
C          -0.91009082318082   -9.32012553058955   -0.28181106447220
N          -1.21239353590516  -10.59091881702040   -0.33815157283030
C          -3.02954332439197   -9.50659965184530    0.37259508096937
N          -2.49758767164957  -10.69683180927781    0.05792462457176
C          -3.09601437074634  -11.94033975837573    0.09387129618243
C          -4.35607434484761  -12.37004852408921    0.43919727257812
N          -4.42370217580165  -13.71401029813713    0.29406105720513
C          -3.25096632530813  -14.10133228120742   -0.12386448000906
N          -2.39779178971663  -13.05951112564743   -0.26446966503129
H          -1.43668746960737  -13.04804077789993   -0.56831488416681
H          -1.91627629320823   -0.43493449009301   -0.91913748764410
H          -0.59918460929710    1.79033669857673   -0.49854515341666
H           1.64426682393828    1.33628053683907    0.77709104836125
H           0.06522371060106   -8.96829498098012   -0.55037340885256
H          -4.03898916354162   -9.38829405294677    0.70502304154307
H          -5.20029281036423  -11.80459283684452    0.77520507460800
H          -2.98287457859527  -15.11647111185927   -0.33367480468804
