23
         -46.729247452244          0.000506943794
C          -1.20128261847195   -0.28350791895914    0.00395385612045
C          -0.36976703200793    0.80020824850949   -0.00092963368307
C           0.93385682489069    0.25563329961310   -0.00100409219682
N           0.90005413254849   -1.05363742222776    0.00347693135478
N          -0.39612165963892   -1.38525058434405    0.00647531244165
C          -0.80405054527625   -2.68488778185157    0.01261185377241
S           0.32188098481118   -4.01074496251473    0.01604909752109
C          -1.14083056755704   -5.02724902232681    0.02450442695505
N          -2.23480117015389   -4.33075343150368    0.02375386968506
N          -2.05786568493790   -3.03662410953256    0.01718609855591
N          -0.95839109257525   -6.36165663696716    0.03269797133280
N          -2.00960282810412   -7.09101311438911    0.03914399044805
C          -1.80240531006408   -8.43056748362218    0.04929205796369
C          -0.61521957763577   -9.22378854049960    0.05134343641401
N          -0.91344857883782  -10.49697349547134    0.06294863866769
C          -2.83657279233985   -9.36933263385629    0.06097099949248
N          -2.25107272466815  -10.57041576433074    0.06890638015244
H          -2.69488106919052  -11.47646919803077    0.07842497859571
H          -2.26600552858662   -0.38763745672277    0.00590256187105
H          -0.64066618648026    1.83536345715575   -0.00397055032031
H           1.87230119997559    0.77271119451477   -0.00406473438813
H           0.40089618387176   -8.88681924829777    0.04434687065175
H          -3.89718435957137   -9.22723739434513    0.06412967859226
