25
         -49.677077348495          0.000363692671
C          -1.15602289079437   -0.33075493872597    0.01816810282366
C          -0.41733677739291    0.86228630533643    0.02260539862129
C           0.92818175644228    0.64710713735760    0.01408626836532
S           1.32555993534373   -1.01970742696094    0.00087059167526
C          -0.35610080761657   -1.44929900033270    0.00665605234937
C          -0.79605836570093   -2.80243706452916    0.00030869547768
S           0.28137315476507   -4.18311445573343    0.00538107988547
C          -1.20496786303548   -5.15481395285157   -0.00380513539218
N          -2.27656087776121   -4.41930404028788   -0.01079296388227
N          -2.05874139679479   -3.13730246174352   -0.00861050854279
N          -1.05680402922688   -6.49013778592058   -0.00759689921994
N          -2.12610967382144   -7.19838467804138   -0.00149598878327
C          -1.94397868354142   -8.53917612237345   -0.00012992715185
C          -0.77356026945973   -9.34607423327045    0.04918165953287
N          -1.09406022375998  -10.61822196094043    0.06153952811562
C          -2.99619342810818   -9.46482616547914   -0.03021982670145
N          -2.42829476805064  -10.66910363446618    0.00702580781294
N          -3.06957203279502  -11.88774772164874   -0.05335079318577
H          -2.22797776638450   -0.39530438629915    0.02340724936383
H          -0.86173171800388    1.84111853399902    0.03181486597689
H           1.71575608168753    1.37441665759772    0.01460164282988
H           0.24818373335451   -9.02844110861092    0.08194809617864
H          -4.05445094160563   -9.31836725634400   -0.07377024284456
H          -3.64684105786362  -12.05111789318933    0.76856766468654
H          -2.35977108987606  -12.61156234654202   -0.12955041799115
