16
         -37.598112680604          0.000551475834
H           1.00321828213327   -0.17757096159743    0.00073647350178
C           2.05800258105606    0.01056155365965   -0.00691262490545
S           2.70730636850626    1.60952632856204    0.00623831211648
C           4.28627917087833    0.79799865588994   -0.01843354395603
N           4.17580034469871   -0.49446940711482   -0.03080194363534
N           2.94249041067002   -0.92831852181413   -0.02398516862058
N           5.37912787957971    1.58798078593796   -0.01512532352909
N           6.51710072892951    1.01024929257039   -0.04390745170913
C           7.59628018539114    1.83624055710040   -0.03548316701621
C           7.71351391461477    3.25548918990646   -0.00508932305299
N           8.97650439134555    3.61364541637402   -0.01052881014561
C           8.91819336723625    1.37670344272449   -0.05961484664871
N           9.64844574858629    2.48640385218175   -0.04231987569077
F          11.00230984452621    2.52392376908894   -0.05534134090964
H           6.93124930034192    3.98589907637165    0.01861489133466
H           9.32875748150601    0.38986697015868   -0.08540625713338
