25
         -50.194585013666          0.000960357597
N           1.52944032633121    0.24326868305448    0.02608338331139
C           2.86939576829269    0.15869399257381   -0.02707412339957
S           3.90716934880130    1.57296722414357   -0.01484196258300
C           5.24955419572462    0.38099928297779   -0.02758075420057
N           4.81884041729085   -0.83614181057896   -0.04105293676683
N           3.51789562637569   -0.97266572932819   -0.04296828440697
N           6.49372304111384    0.88108073315726   -0.02952168566079
N           7.46586249808502    0.04597669235175   -0.02877989647367
C           8.70880873275838    0.59057588579947   -0.03484280125007
C           9.16581511763856    1.94140216439600   -0.03821017583565
N          10.47325251225453    1.98761551033540   -0.04099559180783
C           9.88011709028789   -0.16565240765169   -0.03652719358912
N          10.90015363897152    0.70744445394265   -0.04042897761137
C          12.25453886327120    0.44303025429787   -0.04267357545348
C          12.98671501079337   -0.72079861154926   -0.04571868026305
N          14.30659243854665   -0.41747330723752   -0.04538207522738
C          14.38745618885597    0.88360276051732   -0.04428236952342
N          13.16370422767880    1.46366569531611   -0.04178622104537
H          12.90954470223671    2.43893699851742   -0.03988094752363
H           1.08102426599852    1.12292181102603   -0.15556134759811
H           1.01086525052767   -0.60665885912928   -0.11809886218670
H           8.57788253004347    2.83654476858353   -0.03784729750681
H          10.02126053469696   -1.22547843236933   -0.03540014322399
H          12.65031523728988   -1.73665458180684   -0.04719319862311
H          15.30349243613460    1.43806682866054   -0.04418428155086
