23
         -46.750298148689          0.000561540435
H           0.84670254111218   -0.10082148299432   -0.13792089983577
C           1.89808377934667    0.04926274169007   -0.00275797440720
S           2.79826433909953    1.16787752317824   -0.99041215213275
C           4.20177660106202    0.61423367232928   -0.05244080995364
N           3.87895877898135   -0.25734109453936    0.86234504502886
N           2.60095249902534   -0.55577845870925    0.88054827769955
N           5.34631805141239    1.28285988672777   -0.16256593055362
N           6.48390868102041    0.73664676913150   -0.18577459199391
C           7.56191663008934    1.55556935619348   -0.08557446673222
C           7.67672699434627    2.95942543341799    0.13372948656480
N           8.93314086869635    3.31505173740346    0.18730016191555
C           8.88270130321911    1.11037305759588   -0.15643130741431
N           9.65792705950622    2.19077763300100    0.01144386688656
C          11.03649698627695    2.26734510779056    0.03044595096709
C          12.03633087171347    1.33310735989927   -0.10790428613003
N          13.23731868735252    1.94744543080181   -0.00211901889127
C          12.99095832519894    3.21259529927330    0.19522698261489
N          11.66209874745235    3.46746583720373    0.22406036154817
H          11.17399629348847    4.33916521527453    0.35857556356815
H           6.89008907463989    3.67725972278520    0.24739843615493
H           9.27591072833257    0.12759475957526   -0.30787859892867
H          11.96499748478644    0.27833362260034   -0.27388631999846
H          13.73988467384151    3.96746087037046    0.32047222402377
