24
         -50.783494613229          0.000974887014
C          -1.15308942702259   -0.36715848092384   -0.00108695586835
C          -0.42347395246216    0.82971081039057   -0.00365611518929
C           0.92474764445580    0.62326156834704   -0.00116827774856
S           1.33548558295249   -1.03830643674307    0.00437714092945
C          -0.34334526154489   -1.48107682634941    0.00344326114170
C          -0.77654079049727   -2.83428612783779    0.00785679135927
S           0.29854542079171   -4.21271602288080    0.01658617763346
C          -1.18802894637029   -5.18449028818674    0.01967347821417
N          -2.26038274625386   -4.44720114394574    0.01307517760741
N          -2.04333593144830   -3.17036513585120    0.00654589381896
N          -1.04815656575852   -6.51990276280142    0.02552026680565
N          -2.11568326989378   -7.22427594461971    0.03806658359911
C          -1.92419455414113   -8.57111286092308    0.04259688355364
C          -0.73294618612067   -9.37104288220980    0.03760358952454
N          -1.02000121696176  -10.63832917308483    0.04774778995448
C          -2.95689330550299   -9.49394948024738    0.05654387582143
N          -2.37284901764796  -10.72044764668223    0.05923356040674
C          -3.01161197716647  -11.88783661403587    0.07287065147258
N          -3.58252296693161  -12.87797841862307    0.08377108420791
H          -2.22453297637836   -0.43999242763854   -0.00228164758530
H          -0.87385642992402    1.80567290447011   -0.00710280134449
H           1.70601745105282    1.35749318477600   -0.00224000431943
H           0.28309125021347   -9.03231942044255    0.02753388420597
H          -4.01889182743433   -9.35843037395435    0.06427971179734
