23
         -43.853697243752          0.000837730478
C           2.94950973955865   -0.89674928236313   -0.42610921662538
O           3.01386403144004    0.42385617355073    0.09127003466422
C           3.47214280679337    1.33612773381966   -0.74575591314274
S           3.61959562780287    3.00152838150389   -0.20133806760743
C           4.26588441040290    3.29329491461845   -1.84132695130213
N           4.28231685030541    2.22484398453001   -2.57409078890669
N           3.83093758234960    1.14106910361947   -1.96752591269504
N           4.43186195430913    4.55650919260179   -2.23501098858301
N           5.37058546376753    4.91189971025111   -3.00540266182213
C           5.31626243174817    6.17855718368735   -3.49123574438675
C           4.33100755734030    7.20222778457720   -3.39962629442634
N           4.71179120010358    8.26330392732827   -4.06482031516637
C           6.31852000030124    6.74909658231566   -4.28110240731493
N           5.90995244687836    7.98057833318371   -4.59149136406039
C           6.60090412301224    8.97193211444377   -5.36343089010142
H           2.55797508934964   -1.51214095841477    0.38010779859242
H           3.94191864097567   -1.23880282014610   -0.72433489157921
H           2.28957040019391   -0.93271326474158   -1.29437021079245
H           3.39252864570833    7.17236566959791   -2.88512544969990
H           7.25050581459226    6.33909908267735   -4.61112152470037
H           7.29623843511258    8.48973014087568   -6.04793493819852
H           7.15130079862802    9.65120345275780   -4.70814497722610
H           5.86728594932669    9.55008285972700   -5.92345832491885
