30
         -59.941563261045          0.000701585941
C          -1.14133934240330   -0.38699181141413   -0.00493562702296
C          -0.42205164078463    0.81730090757314   -0.02552361935266
C           0.92644430294058    0.62270423190649   -0.05747077446121
S           1.35003162509184   -1.03780491441719   -0.06263564686165
C          -0.32417583301121   -1.49346398102612   -0.02115225539405
C          -0.74812466204697   -2.85146079583634   -0.00804544280137
S           0.33482430925814   -4.22644053867292   -0.01807920296235
C          -1.14404904620928   -5.20545999801754    0.01260106633441
N          -2.22115922748992   -4.47438330695872    0.02337377984424
N          -2.01099421254324   -3.19288355133686    0.01228564376903
N          -0.99331991693561   -6.54007511750839    0.00542309951136
N          -2.06294337016239   -7.24228841700426    0.05533157795119
C          -1.92384614238223   -8.58327825008406    0.03793403123723
N          -0.76034772188978   -9.32392039550195   -0.01009127502608
C          -1.12472958614683  -10.55727145456723   -0.00273725200689
C          -3.01084903834356   -9.44715645072883    0.07364972475757
N          -2.49663768987155  -10.70338967654314    0.04645278173802
C          -3.19743790403861  -11.89341705981669    0.06442889707838
C          -4.54057517106690  -12.14978907669562    0.10584360729515
C          -4.65520072671088  -13.56084030193875    0.10434472676480
C          -3.38646302838548  -14.04673281340336    0.06251636123894
O          -2.49162964168585  -13.03960351549116    0.03790643298157
H          -2.21177808340516   -0.46869340377092    0.02110633739467
H          -0.88187472242601    1.78897695212099   -0.01718166516027
H           1.70167447385614    1.36290010621432   -0.07859384107406
H          -0.46559459809284  -11.40184867304728   -0.03028235422426
H          -4.05756522753522   -9.23548462854930    0.11211492044307
H          -5.33768452406322  -11.43720411152387    0.13325777567742
H          -5.56256503986147  -14.12722853095051    0.13082946971507
H          -2.99628861365445  -15.04403142300991    0.04671872261568
