26
         -49.921861428126          0.000560345764
C          -1.22567296317857   -0.32374366835959    0.00529013136526
C          -0.40163808776889    0.76624194067170    0.00340571544832
C           0.90492129363773    0.23063573926197    0.00308837175526
N           0.87993823835368   -1.07916959735996    0.00522239272337
N          -0.41347285995874   -1.41966297497801    0.00636317932554
C          -0.81435202250364   -2.72313228532391    0.00733208182490
S           0.31755702330282   -4.04414962413855    0.01111031216046
C          -1.14010047735438   -5.06852501430333    0.00975101867443
N          -2.23753896354089   -4.37573092954267    0.00591372508326
N          -2.06651355052050   -3.07989724410779    0.00455285627459
N          -0.94635812918811   -6.40020835470938    0.00528357046062
N          -1.99386193200036   -7.13525678969720    0.01514237720871
C          -1.81779127090323   -8.47094236823142    0.00499900325252
N          -0.64151611336019   -9.18552864392172   -0.00783025660470
C          -0.98912896936096  -10.42828505790527   -0.01248974641598
C          -2.88677027712820   -9.36494086120133    0.00741110421375
N          -2.34853313939114  -10.60017887864077   -0.00429413758292
C          -3.04737782331651  -11.85422505484092   -0.00794115320956
H          -2.28958836336107   -0.43521572817361    0.00613046054230
H          -0.67980385923541    1.79956984179878    0.00218177407039
H           1.84002458695766    0.75384010281176    0.00162111007361
H          -0.30808559383880  -11.25682228184146   -0.02148555050790
H          -3.93969479934395   -9.17526013670318    0.01520724179602
H          -4.12023943288091  -11.67215862187076    0.00048584786255
H          -2.77808076988334  -12.44006539869820    0.87300793758441
H          -2.79001174423407  -12.42812810999518   -0.90025936737924
