23
         -46.768089288852          0.000999852663
C           0.93485321405804   -0.84670006629987   -0.00810208458443
N           0.80630598749809    0.49459720055781   -0.00801326884376
C          -0.48009937795469    0.73669423907487    0.00358058486701
N          -1.20694735428493   -0.39761469298824    0.01129838689131
H          -2.20747098521697   -0.51478072031655    0.02062839541470
C          -0.31410716717993   -1.44146016472260    0.00402534920715
C          -0.74006955727517   -2.79839513568481    0.00823699998670
S           0.34915619691024   -4.15908967850011    0.00173899801334
C          -1.13193414372879   -5.15002003499332    0.01304556885925
N          -2.20993266891035   -4.42599527672441    0.01876378138796
N          -2.00353634142827   -3.13954378566966    0.01618517425414
N          -0.96169122569260   -6.48229400579210    0.00543265854582
N          -2.01346748295724   -7.20959352618559    0.02695092871159
C          -1.83119257688705   -8.54883505161868    0.01257658734913
N          -0.64433722215383   -9.24636285572131   -0.01508606662695
C          -0.96827956420578  -10.49416140243460   -0.01705425401222
C          -2.88869188352401   -9.45169363770368    0.02671179175693
N          -2.32445007730970  -10.67974109931401    0.00711126084717
H          -2.81503740996656  -11.56004229968391    0.01031285050187
H           1.89592565024842   -1.31982418888712   -0.01683869312336
H          -0.91179724651776    1.71754720143819    0.00664395104597
H          -0.27322466559927  -11.31021889350220   -0.03499157061641
H          -3.94389409792190   -9.27921212432804    0.04707267016708
