18
         -36.899223865132          0.000372091213
N           1.46097139622006    0.03343381902377    0.05886439788360
C           2.80458004716813    0.00788574919796   -0.05902551899890
S           3.83018072887715    1.27082023060394    0.61637193501958
C           5.18253892406551    0.23658826504757    0.06260529455985
N           4.76981875923460   -0.83606544187102   -0.53837815606864
N           3.46444237675360   -0.95678846940379   -0.62293985276896
N           6.40729196569283    0.75493310460803    0.10889785137075
N           7.43397795414553    0.01583009909520    0.19852550811976
C           8.64293657382933    0.60819469525610    0.04052415908703
N           8.90459346398041    1.91437632436230   -0.30386517639822
C          10.18995374241797    2.01376281977903   -0.36067460617794
C           9.84326271565435   -0.07400715235698    0.18524814248784
N          10.81495573595745    0.83307934422932   -0.07077781993890
H          11.80764715299233    0.66129027015032   -0.05373807378763
H           1.01133201773052    0.91251642275015    0.24495945225804
H           0.95422700527753   -0.64600494702035   -0.48394678105633
H          10.72656891595595    2.90892655551302   -0.60576770649350
H          10.03458052404669   -1.09430168896471    0.44169695090257
