21
         -40.072726727389          0.000822857367
N           1.50732911199264    0.17731973473429    0.16899654303407
C           2.84976300803108    0.14652076164609    0.03019645124492
S           3.89322140920624    1.37885337159115    0.73535422724202
C           5.23096114779576    0.35444464292848    0.12933490117982
N           4.80305631595460   -0.69343824074491   -0.50230866096959
N           3.49441315640479   -0.80191450105286   -0.57421738394795
N           6.46060869719084    0.86038583801363    0.17844995854164
N           7.48082033687278    0.11012062244990    0.25373557196266
C           8.69550285728113    0.68436734519555    0.09360100047844
N           8.98213935492881    1.98148150537332   -0.26092317452001
C          10.27120942427987    2.04898936717844   -0.32136263041926
C           9.88644492117494   -0.01736952130260    0.23971419998882
N          10.87821306673700    0.86029943452911   -0.02649394007558
C          12.29073040919298    0.60797280862690    0.01527194867662
H           1.06817389049415    1.05394828361397    0.38916464683605
H           0.98914232765647   -0.47787463942621   -0.39238726764528
H          10.82744397132691    2.92942899745631   -0.57751851558035
H          10.05746712044866   -1.03954433669477    0.50439467939018
H          12.47243348039599   -0.46371115856880   -0.04549957705355
H          12.72211050999206    0.98750665064167    0.94513338893545
H          12.78023548264187    1.10256303381155   -0.82407636729909
