20
         -44.859384643042          0.000849117039
C           2.55404965646111   -1.12336883135567    0.17804291967473
O           2.88730641345423    0.25831347100637    0.19474905614399
C           3.35025497354719    0.71755198163650    1.33941504560659
S           3.83848215037826    2.39922791962224    1.45976255354217
C           4.26438082507352    1.97391090611172    3.14065038840296
N           3.99781186956509    0.73595574496160    3.42881952013232
N           3.48009056776489    0.04485959709177    2.43590041852153
N           4.57099215139043    2.96385761321799    3.97767849705266
N           5.35216106630204    2.79317457001030    4.95718147180217
C           5.44384358583941    3.80214167681054    5.86096225840883
N           4.70629045000945    4.96327064638674    5.89518646085250
C           5.10077953492337    5.62169755104675    6.93409894006291
C           6.31857783545548    3.77583896153639    6.93872892843614
N           6.07472068204783    4.93244129315284    7.58448701954231
F           6.71273251263667    5.33293489782746    8.72173757277273
H           2.15481201841096   -1.31885574400211   -0.81453403019041
H           1.80930701808543   -1.34487702671209    0.94509468958440
H           3.44193810553011   -1.73207782332215    0.36206578570408
H           4.73407313225492    6.57317547745262    7.26139161995820
H           7.04328545086923    3.05740711751930    7.25637088398675
