25
         -50.156811787483          0.000544447484
C          -1.07899541589941   -0.29433816364311   -0.36760630599902
C          -0.25687788038700    0.76975664753975   -0.11680259911604
C           0.90632150718834    0.20232436278953    0.44319768541972
N           0.80322441181896   -1.10245133565706    0.52750937101186
N          -0.40218553415636   -1.40533731201165    0.03598269982320
C          -0.84648801147938   -2.69440246556765   -0.02745299535331
S           0.12377975294322   -4.03114911865173    0.55647303871633
C          -1.27687211440760   -5.02565395240454    0.08227983661176
N          -2.24131448464469   -4.32265438650051   -0.44820332481311
N          -1.99483440302206   -3.03708639302947   -0.51562347937994
N          -1.13962036080576   -6.34515210970311    0.05954692984516
N          -2.06390066554975   -7.15207270757940    0.35727448145013
C          -1.88659225602374   -8.46095322574252    0.07957826539433
N          -0.84077099355881   -9.05400444276628   -0.57982813834856
C          -1.12175785537617  -10.31581837403494   -0.62838935994802
C          -2.81793140986606   -9.43916380134988    0.43106229235648
N          -2.31365212556614  -10.60208296077835   -0.02045035037097
N          -2.93296890641201  -11.84032518381913    0.01235726733710
H          -2.06060875947256   -0.37543663184887   -0.78502122582595
H          -0.44937465982085    1.80566897360043   -0.30414741986552
H           1.79553664877737    0.69719040638808    0.77877492697280
H          -0.50850656393747  -11.07020994650777   -1.07978500033053
H          -3.75279394040003   -9.35647698045911    0.94426441406802
H          -3.59402988329865  -11.89412496980503    0.78101283088380
H          -2.24574609664719  -12.58524592846178    0.07292615945784
