19
         -36.625743437509          0.000387979605
H           1.03599341684354   -0.31595455559943   -0.03556885754437
C           2.08951958055377   -0.12098522109693   -0.04529170833246
S           2.73033150101111    1.48304727921284   -0.03202837047035
C           4.31583679248839    0.68124397603666   -0.05915256365195
N           4.21145580591963   -0.61186348363833   -0.07696659535552
N           2.97829186951803   -1.05481942248164   -0.06949053734273
N           5.39799865587805    1.48337887830031   -0.06813099964145
N           6.54187531726415    0.91178829387733   -0.06749886699181
C           7.62992991039751    1.70660457176166   -0.08307008353191
N           7.68700685151480    3.08179989850284   -0.09145255394558
C           8.94279486504390    3.37794929507486   -0.10224693847068
C           8.92901839150084    1.20237994461034   -0.09016724244115
N           9.74990585444091    2.27056056458887   -0.10289182632997
C          11.18542820928135    2.26677080407061   -0.11407373660143
H           9.33855171557461    4.37473481507226   -0.10964082691977
H           9.27265244374435    0.18911807395527   -0.08824985445344
H          11.54662471713302    1.24028966758967   -0.11397336615828
H          11.57165678329881    2.78100575426639    0.76812611798083
H          11.55770731859324    2.77599086589637   -1.00511118979797
