24
         -50.804517575710          0.000506797839
C          -1.14584134737578   -0.37909541963667    0.01346796158908
C          -0.41665093320141    0.81822257465104    0.00747525182050
C           0.93146471452769    0.61208885477922   -0.00376286905896
S           1.34230811790892   -1.04980498936518   -0.00720396629238
C          -0.33621396646329   -1.49289898374822    0.00671047774566
C          -0.76715712995053   -2.84733896545320    0.00982691518640
S           0.30914732763776   -4.22386507314179    0.00190918411750
C          -1.17478325054565   -5.19884272352831    0.01294782643272
N          -2.24910973564117   -4.46191965109103    0.02032396237341
N          -2.03441413248452   -3.18475797853137    0.01863085424253
N          -1.02642574603384   -6.53176841869797    0.00873060815408
N          -2.08827701425321   -7.24326561646145    0.02185943133949
C          -1.91901869794156   -8.58553621329431    0.01489181461017
N          -0.72878293242046   -9.29205229021239   -0.00019534875278
C          -1.04153465637585  -10.53273161268953   -0.00076982257072
C          -2.97813411189553   -9.47385024494728    0.02338264669140
N          -2.41920096482817  -10.72264312002616    0.01311264987873
C          -3.05529977511180  -11.88658034037032    0.01557387258528
N          -3.58377394386145  -12.90116377403739    0.01742493093461
H          -2.21723285726208   -0.45207268281342    0.02236396591213
H          -0.86738709923188    1.79406636633890    0.01126583275692
H           1.71256433903282    1.34650276239601   -0.01028712232657
H          -0.35659055178382  -11.35750522544458   -0.01044922932554
H          -4.03445565244516   -9.30422723467463    0.03484017195638
