30
         -60.419966784874          0.000717745250
C          -1.24686166046747   -0.28621792467179    0.00606209600600
C          -0.34788161530376    0.79639745665389   -0.01870775763251
C           0.90238448944670    0.24755028847015   -0.04839203429211
O           0.83950630571420   -1.08778051969290   -0.04377457777546
C          -0.46860483352739   -1.42364062063777   -0.01066264629401
C          -0.85676498267108   -2.79374176081268    0.00151458615712
S           0.28258006924643   -4.11767923587846   -0.02234026082039
C          -1.15544812939715   -5.15598860624190    0.01357260247911
N          -2.26237255181088   -4.47095255452805    0.03765389135060
N          -2.10541754064339   -3.18069559371126    0.03122843189987
N          -0.95511564640644   -6.48555726284751    0.00827537219832
N          -2.00341317079237   -7.21955460749566    0.03978553202241
C          -1.83421918960287   -8.55607808814874    0.03211799379275
N          -0.66458523225895   -9.28432779956968   -0.00140710859514
C          -1.01728934604793  -10.52202753730207    0.00599070447562
C          -2.91174272499247   -9.43323990837978    0.05995936146414
N          -2.38705595584700  -10.68480978362592    0.04285611491078
C          -3.06543012444304  -11.88822394094453    0.05829216766255
C          -2.61363513391163  -13.18701099035519    0.04071502488695
N          -3.66845693001224  -14.03568197872694    0.06760311572658
C          -4.73667880399861  -13.29426469400117    0.10127472184753
N          -4.43361996626036  -11.97103511654189    0.09728795711251
H          -5.07883186255121  -11.19861885802844    0.11871657144940
H          -2.31578631116124   -0.26108003599417    0.03251444779410
H          -0.59243000895933    1.83851570003251   -0.01505823521846
H           1.87778878452695    0.69215824893534   -0.07366970520671
H          -0.34462557213272  -11.35536473904188   -0.01356969300269
H          -3.95766331847244   -9.21197212605517    0.08840198419845
H          -1.60964645357474  -13.55601506608267    0.01047625131020
H          -5.74133258368758  -13.66360234477557    0.12874309009254
