23
         -51.275000958219          0.000385112149
C          -1.13823930846647   -0.22606196489607   -0.36436861656724
C          -0.23889490868737    0.83155414172040   -0.13252743079713
C           0.90046127831940    0.25857892561876    0.35534252550949
O           0.76989880370620   -1.06988801193068    0.43977353280377
C          -0.47192970091163   -1.37543533838717    0.00271374603972
C          -0.90417465648604   -2.73104341968316   -0.02224179358678
S           0.10303557769663   -4.06241462343776    0.53044566591558
C          -1.29901990756841   -5.07901143076165    0.14432374919024
N          -2.29670574201718   -4.39124857184202   -0.35535032453345
N          -2.06997763862707   -3.11521164083870   -0.45402183736397
N          -1.14513915638690   -6.39564887228513    0.13919910067475
N          -2.06860631071796   -7.20571694789572    0.43072890106157
C          -1.85670709164873   -8.51849125885308    0.16219183749181
N          -0.78756905930798   -9.07004854228732   -0.50579818311041
C          -1.00549116522949  -10.34181229364896   -0.56652549238731
C          -2.75253334731339   -9.51998048997918    0.51157731662236
N          -2.18248911817565  -10.64572904616031    0.03993431064373
F          -2.72324771090556  -11.89252056997890    0.15654929067967
H          -2.13610433593501   -0.17712098879146   -0.74611279397854
H          -0.41111613909309    1.87412918109510   -0.30337955778289
H           1.83642054088850    0.67959958495664    0.66583387354348
H          -0.37090869033270  -11.07429319157695   -1.02184582766230
H          -3.68821221280058   -9.49672463015441    1.02739800759371
