24
         -51.632484763520          0.000433598278
C          -1.14384968808638   -0.25533814965928   -0.32008725002198
C          -0.21974455166603    0.78672568488551   -0.11906027163646
C           0.93355887639203    0.19209314313463    0.30753211559209
O           0.78835829538546   -1.13491326663508    0.38312072233526
C          -0.47692997452709   -1.41836156084606    0.00173889375802
C          -0.92626545430122   -2.76797940250556   -0.01793144607577
S           0.08141885987021   -4.11209671209485    0.49401832822014
C          -1.34382249628686   -5.11101663131691    0.14688325017424
N          -2.34818094079797   -4.40858372251037   -0.31811267161018
N          -2.11090997940311   -3.13605751649762   -0.41640760391123
N          -1.20259271301144   -6.42909671923519    0.13808138870872
N          -2.14471707092734   -7.22587061806643    0.41361238783843
C          -1.93601062559518   -8.54097291857813    0.15459563202046
N          -0.83080687321913   -9.10945681537567   -0.45090165126580
C          -1.05931958708721  -10.36751043855997   -0.51801527363918
C          -2.85595340752195   -9.52752620290410    0.45155069254739
N          -2.29584952709656  -10.69978469338948    0.02102198001448
C          -2.82335849113496  -11.91544773881458    0.09422434175313
N          -3.25812774030017  -12.97183748704420    0.15023702966229
H          -2.15802919382342   -0.18806596778803   -0.65288056377112
H          -0.38488449900303    1.83365180777522   -0.26905072847397
H           1.88931884690183    0.59651042957516    0.57712798702431
H          -0.40260456220338  -11.10689344435218   -0.93170424780805
H          -3.82034750255792   -9.47401105919623    0.91193695856501
