23
         -46.284092279048          0.000712883355
C          -1.15915188876267   -0.32883589254814    0.01522948713896
C          -0.43012721437035    0.86991819271497    0.00922785736751
C           0.91715962056896    0.66504753343966   -0.00237151618935
S           1.32751068738856   -0.99847861295834   -0.00608155489202
C          -0.35055314682642   -1.44152611912214    0.00811435134308
C          -0.77684062236295   -2.79934878393370    0.01086934072298
S           0.31431079320963   -4.16765244908211    0.00130329219895
C          -1.16004332291537   -5.15609103031137    0.01244412559730
N          -2.24059662009132   -4.43106928463736    0.02113565951805
N          -2.03742094651476   -3.14753851892142    0.02032355185874
N          -0.99071272269624   -6.48820896977495    0.00684373325677
N          -2.04287867995763   -7.21568778980903    0.02010438583465
C          -1.85900010775812   -8.55473942957118    0.01114142497288
N          -0.67044569257585   -9.25003535517228   -0.00758547608850
C          -0.99171853280486  -10.49856698616313   -0.00876145677912
C          -2.91449249507152   -9.45982691585257    0.02095821222673
N          -2.34747361170754  -10.68697277858958    0.00793594435327
H          -2.83609362285068  -11.56833439314472    0.01031049016014
H          -2.23055075542892   -0.40125842294795    0.02435006551370
H          -0.88197767920226    1.84536966909238    0.01323099055820
H           1.69887448097887    1.39872567267800   -0.00899100988986
H          -0.29448181294295  -11.31287647305858   -0.02110265966114
H          -3.97023610730562   -9.29016286232644    0.03512076087810
