18
         -36.861083270915          0.000515367204
H           0.99544978845431   -0.28247113352006    0.43843233472634
C           2.03488923334012   -0.10605727037658    0.25225213823399
S           2.94008536563900    1.08038581592283    1.15368228495830
C           4.32210786929816    0.52905670218405    0.18022519940044
N           3.98776994032919   -0.39224423391626   -0.68241759884923
N           2.71883773415535   -0.72803902123373   -0.63400897293121
N           5.44225557195991    1.23804941615813    0.21264908274050
N           6.60353476281529    0.75108610993121    0.24726739586798
C           7.65225937157323    1.58361339648172    0.06669681260416
N           7.62799484673132    2.91920251867479   -0.24041493653193
C           8.86566763458616    3.28390067657435   -0.33415977835408
C           8.97826852625592    1.15945725109229    0.15784158987713
N           9.72729140336984    2.24868377149043   -0.09357055740859
N          11.10679407567550    2.29725552180414   -0.20420077442206
H           9.20428619513752    4.27407001671437   -0.56593059894757
H           9.38607946149294    0.19454859751562    0.37416784405911
H          11.53883796712788    1.55259827140285    0.33379795063793
H          11.45947025205827    3.20437359309977    0.08554058433880
