30
         -60.408038582054          0.000663516837
C          -0.96751232340613   -0.31680570333891   -0.47695691215690
C          -0.13280162029147    0.72543317838149   -0.18209251569140
C           0.95768943170515    0.13501806351434    0.49066452434073
N           0.80170703690594   -1.16234203085272    0.59756786142629
N          -0.36736185926006   -1.43872883817384    0.01085299297279
C          -0.84931672374349   -2.71300365544857   -0.05698321047683
S           0.00229592491307   -4.05721112200120    0.67426116137163
C          -1.37344066028143   -5.02196540920295    0.08525536463626
N          -2.24924163433015   -4.30915871092797   -0.57169037470918
N          -1.94985643468432   -3.03694079153524   -0.65695332967141
N          -1.28100327349730   -6.34517087138153    0.12072978831131
N          -2.26252395222418   -7.11157205486273    0.32534196934551
C          -2.08933480269840   -8.43521463112618    0.10916719517845
N          -0.98117156876332   -9.06553827408838   -0.41339431782977
C          -1.27695775108479  -10.31700308769034   -0.46542075662936
C          -3.07286352834544   -9.38007725601820    0.36753440947268
N          -2.54907982629363  -10.57718257534427    0.00011360708064
C          -3.16045952087892  -11.81462105537595    0.07050423894111
C          -4.41234527707569  -12.18234752239108    0.48097861877615
C          -4.46205197168107  -13.58851803347627    0.32509010878193
C          -3.24946205930515  -13.96123896572043   -0.16346938643716
O          -2.45006877530222  -12.88882385295079   -0.32159832577713
H          -1.91196612395250   -0.37651819987005   -0.97590102244104
H          -0.27168341323688    1.76177957371562   -0.40991185056141
H           1.83200386782597    0.60951121360364    0.88908004741091
H          -0.63356272115072  -11.09481077084388   -0.82479785510863
H          -4.05636203205650   -9.26123619761542    0.76832187014669
H          -5.19163021419189  -11.54521931361839    0.84257643911474
H          -5.29171558372599  -14.22608028364808    0.54814945116516
H          -2.84146260988765  -14.91486282171479   -0.43036979098338
