24
         -51.269865260047          0.000503502073
C          -1.13047515139638   -0.33115388908695   -0.33851652534482
C          -0.29413635602194    0.73124138735805   -0.14259420332751
C           0.90252618777258    0.16410396939763    0.34911228079773
N           0.80433924559856   -1.13858297695966    0.44529677109652
N          -0.43037870743314   -1.44321672117095    0.02904957297479
C          -0.87471432931386   -2.72976892285316   -0.00219299257623
S           0.11886324376364   -4.05957234969662    0.54528530825729
C          -1.30045413897181   -5.05599785685314    0.14526215945652
N          -2.28843104332746   -4.35717988814663   -0.34811576353912
N          -2.04655646533469   -3.07764982666501   -0.43997232315898
N          -1.16507022334451   -6.37766295400924    0.13665315157521
N          -2.11871405679180   -7.16356970214240    0.39738114675285
C          -1.92644785757051   -8.48113863206189    0.13982315409774
N          -0.84309252623250   -9.06214137104125   -0.49209185083884
C          -1.08816588326507  -10.31722775400640   -0.55442964635684
C          -2.85115832181991   -9.45732527071308    0.45796445558734
N          -2.31479358212336  -10.63522498584283    0.01579773363393
C          -2.85140550236144  -11.84596065055305    0.10888466838598
N          -3.29565580206815  -12.89738240057489    0.17761907825413
H          -2.13568108279701   -0.41340899213293   -0.69563114776696
H          -0.49530648514762    1.76669605368027   -0.32232163659228
H           1.81055845729689    0.66038571775994    0.62711225097418
H          -0.45115083572885  -11.06354817951822   -0.98644844350039
H          -3.80253878338152   -9.39283380417025    0.94366280115964
