30
         -59.942919007498          0.000842990042
C          -1.00153170125385   -0.22066443306307   -0.44181814302954
C          -0.09670144381034    0.80649725290656   -0.11161842488917
C           0.96329096678832    0.19598716570210    0.49413469833861
O           0.77886562308841   -1.12782631024434    0.56072112637903
C          -0.41818927848407   -1.39114226759684   -0.00834834078031
C          -0.89199870591176   -2.73192267151331   -0.08074570686576
S          -0.00036435521460   -4.09171233883749    0.59318490535214
C          -1.38245075543417   -5.06536159694746    0.05156047872510
N          -2.29131532522137   -4.34987849293153   -0.56436393489453
N          -2.01182745280409   -3.08054034916173   -0.64081010393213
N          -1.27122917769684   -6.38531099576413    0.07721386704136
N          -2.23848747103334   -7.16910137020487    0.29275507025881
C          -2.03917319203939   -8.48836188726459    0.07192434785815
N          -0.91528984933656   -9.09516835643250   -0.44487578809751
C          -1.18535263612591  -10.35253173412647   -0.49196131874648
C          -3.00165451724411   -9.45429840233339    0.32894408669686
N          -2.45209185875190  -10.64260346969308   -0.03228846372467
C          -3.03628369030805  -11.89417491742505    0.02962797890573
C          -4.31783263453007  -12.20996116657320    0.38283680566033
C          -4.56134489722378  -13.59832195009415    0.32611814477533
C          -3.47487201026155  -14.31118123328761   -0.06328843965133
S          -2.11288614717975  -13.30972963024900   -0.37559732586451
H          -1.95070124329962   -0.13811276584018   -0.92798246619117
H          -0.21454021403962    1.85431159620468   -0.29688062586567
H           1.87447434968679    0.58469908851260    0.90424733871062
H          -0.51890826527809  -11.11442217351438   -0.84579870988136
H          -3.98718717346766   -9.35054820605753    0.72913349947839
H          -5.06087080716155  -11.48802374018125    0.66659805481889
H          -5.51037065646411  -14.04228261643908    0.56584107897679
H          -3.38179547998751  -15.37071202754779   -0.19095368956073
