23
         -47.112939511772          0.000400927542
C          -1.13005382853358   -0.22207032999403   -0.36805861019688
C          -0.21825987928482    0.82427003242759   -0.12982519937446
C           0.91161387025559    0.23662152429053    0.36095918666889
O           0.76359104515112   -1.09109265160031    0.44197066535629
C          -0.48000037196963   -1.37991193832419   -0.00122793648653
C          -0.92631506780519   -2.73174676360675   -0.03256507399608
S           0.06999560559535   -4.07239556333501    0.52656844546526
C          -1.33594144289370   -5.07970644787874    0.12683198247123
N          -2.32582914300403   -4.38496781071189   -0.37809578255932
N          -2.08975592902478   -3.10726515427628   -0.47083828630756
N          -1.18530122573790   -6.39524446520126    0.11263744079707
N          -2.07458976274363   -7.22115087542898    0.45295911354457
C          -1.85997829488494   -8.52969249116614    0.17149875326732
N          -0.80845394721941   -9.07440077955243   -0.52747132561345
C          -1.03300398205913  -10.34424326364875   -0.57011237449990
C          -2.73253987068323   -9.54272832470794    0.54728447622860
N          -2.19229201930233  -10.68672231086943    0.06927257587145
H          -2.57887740271165  -11.61242372154272    0.16528175902218
H          -2.12572131589965   -0.15948784381666   -0.75341465872925
H          -0.37705755223652    1.86938095575366   -0.29899172944910
H           1.85192345137923    0.64412480727932    0.67616064293683
H          -0.39741227346734  -11.06451940066368   -1.04576067038624
H          -3.65151066292064   -9.50063718342508    1.09240660596823
