30
         -59.578252247829          0.000729939463
C          -1.20580017902386   -0.32575003189395   -0.00567827846899
C          -0.38409034292833    0.76542067924550   -0.02620226053857
C           0.92358039157171    0.23222330987449   -0.05008138431723
N           0.90137503406463   -1.07741532306693   -0.04431118978771
N          -0.39121903677335   -1.42049809982816   -0.01743257914465
C          -0.78988291093535   -2.72399233084669   -0.00533292732696
S           0.34216640158823   -4.04417998866147   -0.02156453225943
C          -1.11460427973909   -5.06917853269955    0.00883709166550
N          -2.21260004622988   -4.37635853279822    0.02602287528622
N          -2.04237875610578   -3.08168780120377    0.01833738327791
N          -0.92469609931469   -6.40111234103997    0.00490507849058
N          -1.97638378060439   -7.13003969118463    0.03431336553698
C          -1.81111097981670   -8.46654188478499    0.02635023319072
N          -0.63765799360721   -9.19197417944907   -0.00451851385444
C          -0.98900499207511  -10.42872246160405    0.00094283564410
C          -2.88699250011730   -9.34607430561920    0.05048601699755
N          -2.35930128153783  -10.59551527614941    0.03373682612057
C          -3.04390185769009  -11.79616576268585    0.04586835480252
C          -4.39570522614762  -11.99258840926606    0.07596932702603
C          -4.73747999048783  -13.36101229130383    0.07922228536462
C          -3.65440348149635  -14.17733323987074    0.05188162475174
S          -2.17573150584806  -13.30138100357127    0.02117278203335
H          -2.26914854470905   -0.44017440465965    0.01582766376459
H          -0.66400376136007    1.79825860618170   -0.02477294474839
H           1.85740522750025    0.75725963237866   -0.07076190238142
H          -0.31690582407157  -11.26443933678756   -0.01731816399495
H          -3.93454293951585   -9.13708001553845    0.07620443657582
H          -5.11965520793193  -11.19952964679631    0.09495818315781
H          -5.75121271110915  -13.71681425526190    0.10101935535633
H          -3.62496282554845  -15.24824308110873    0.04763895777980
