21
         -45.216942885418          0.000423852059
C           3.01926735417962   -0.74428128962185   -0.47430905475116
O           2.71149424102993    0.47282780190373    0.19279667746467
C           3.34168641614615    1.53953992525248   -0.25097478132238
S           3.07294042661240    3.08881283204287    0.52746992693477
C           4.26423904356947    3.69388812275242   -0.65730784077937
N           4.68645886620143    2.76657468494077   -1.46334624517490
N           4.16634395818136    1.57950991084608   -1.24775219905895
N           4.42791213164514    5.01100244441156   -0.76427275349402
N           5.52177025992702    5.51668329492668   -1.14876193138285
C           5.52712543404484    6.84606288951085   -1.41986263238941
N           4.44281179428286    7.70314961913643   -1.44495295850104
C           4.89555087180906    8.85382070054424   -1.77697087888138
C           6.67085669169699    7.54220611624201   -1.75972670235046
N           6.26896564990645    8.83040965256169   -1.98668818818095
C           7.03049506621663    9.85803608459201   -2.34086747109600
N           7.66871057858220   10.75784979958569   -2.64291000359693
H           2.40124305274804   -1.50422082545081   -0.00217138643577
H           4.07822435314568   -0.98407098743735   -0.36047818442639
H           2.78798978112235   -0.66360099728788   -1.53798918318828
H           4.31835735608686    9.74998097438007   -1.89099507804449
H           7.68817667286580    7.22255924616867   -1.84788913134388
