23
         -47.109293443879          0.000662447550
H           1.00401604367056   -0.20881679657464   -0.08620021284297
C           2.05838878984582   -0.01868885928482   -0.09308746127900
S           2.70878344090730    1.58119567365019   -0.08804143464996
C           4.28800835747469    0.77098875137976   -0.10339048120886
N           4.17709355005518   -0.52232884249113   -0.11024784787809
N           2.94242751703078   -0.95798260993070   -0.10423118788421
N           5.37977963191724    1.56152101725703   -0.10904197033360
N           6.51299541245175    0.96998067592429   -0.11192912447719
C           7.61819779720925    1.74064048253247   -0.11984947218419
N           7.70609504032349    3.11760036217138   -0.12203853858060
C           8.96224807967317    3.39248841960023   -0.12874008814419
C           8.90019427561661    1.20359190482918   -0.12596250494701
N           9.75166862037633    2.25895027455530   -0.13181039753635
C          11.13254760250058    2.21758791826982   -0.13905272708271
C          12.00323891216783    1.16237582143871   -0.14335990823820
C          13.29534310982195    1.74070219076576   -0.15024305453392
C          13.11061255528403    3.08748333374612   -0.14956014743434
O          11.79729048480713    3.38793262189754   -0.14279582188031
H           9.38514918185422    4.37724334127356   -0.13168335412190
H           9.21759718221381    0.18316382038352   -0.12680691329586
H          11.76153309142110    0.12047969787939   -0.14193437056728
H          14.22839319595919    1.21717467495128   -0.15502087267126
H          13.79718812741802    3.90947612577575   -0.15328210822798
