27
         -53.527170873399          0.000608652484
C           1.54131948096696   -0.31193460062025    0.32764950513955
O           2.82074174024730   -0.15029357140436   -0.26686358703376
C           3.15538557026731   -1.07477717733452   -1.14749732816238
S           4.72835454632478   -0.99268286486986   -1.92620693334673
C           4.20988515499379   -2.49840376240687   -2.73682950789107
N           3.01268590306715   -2.86603277484042   -2.39566279649050
N           2.42478091614977   -2.06906800991408   -1.52423854023238
N           4.94826396704628   -2.95075484088029   -3.74757246470805
N           5.05808169736227   -4.18384175787692   -4.00651836530908
C           5.65397630771844   -4.53300271610721   -5.16932128568763
N           6.05770516513369   -3.70621752709578   -6.19509525319638
C           6.54125401799249   -4.48136432177130   -7.10156895622399
C           5.92036400460423   -5.85034655419284   -5.51438699105507
N           6.48960863941369   -5.81227024381773   -6.74688333102842
C           6.92496143284870   -6.88336263745737   -7.50483135380011
C           6.78213293619126   -8.21585252190155   -7.23970653974871
C           7.35741099652753   -9.02514870139927   -8.24189778528974
C           7.92363227262606   -8.30597621000598   -9.24315331757893
S           7.77435421624417   -6.61120106709345   -8.99669740981708
H           1.41991565483725    0.53162468482714    1.00293136763831
H           1.49157374937085   -1.25430395043865    0.87633358380868
H           0.76322756574504   -0.30928070669240   -0.43782927547919
H           6.94478008964707   -4.15795144621638   -8.04103563204486
H           5.74810542297554   -6.75044574175689   -4.96484310685149
H           6.28401990273445   -8.60814173333429   -6.37262546731318
H           7.34550978669237  -10.09934664141919   -8.21318570926409
H           8.42380886227134   -8.66197260397914  -10.12118351903355
