26
         -49.457751600889          0.000387070358
C          -1.16421804997613   -0.34196769321588    0.01869669141045
C          -0.43507125527009    0.85702393044580    0.01212682506020
C           0.91198752306782    0.65222900778638   -0.00358269302164
S           1.32202360184855   -1.01175370612099   -0.01065399794286
C          -0.35590032132382   -1.45445593430428    0.00787385898431
C          -0.78295004864114   -2.81229768045530    0.01045897401886
S           0.30746198667219   -4.18179559907208   -0.00240762959696
C          -1.16792022996675   -5.16911776238641    0.01161460032510
N          -2.24761263573112   -4.44339207792815    0.02298965056314
N          -2.04319815734476   -3.15912899874614    0.02245401358715
N          -1.00014808548041   -6.50133559997970    0.00540343235911
N          -2.05672483829527   -7.22469716605973    0.02076007804659
C          -1.88502589109904   -8.56225766714208    0.01183305715147
N          -0.70739238204813   -9.27454658133572   -0.00866231800406
C          -1.05266036324706  -10.51820516130276   -0.00875752535021
C          -2.95185071989133   -9.45739574908579    0.02377410609780
N          -2.41099043003881  -10.69251823379746    0.01032223482625
C          -3.10642556943714  -11.94838761350064    0.01466267155132
H          -2.23559307707973   -0.41447611208415    0.03083579078224
H          -0.88706468026429    1.83244079737299    0.01871858285572
H           1.69380826871249    1.38573665407455   -0.01152013293207
H          -0.36978372964547  -11.34515168570137   -0.02196147912867
H          -4.00525863160992   -9.27103812828534    0.03972801814013
H          -4.17970575410928  -11.76957085009562    0.03223400633251
H          -2.82766808926729  -12.53214781601809    0.89414981264135
H          -2.85520844053406  -12.52303257306204   -0.87903062875725
