18
         -41.061517799364          0.000738226939
N           1.34235275446657    0.18833184314320    0.10091014589718
C           2.68192752373576    0.14184272984792    0.04274270852989
S           3.68635127198307    1.57514808162152    0.06465440684396
C           5.05631148588871    0.41641794693442    0.03020004710652
N           4.65102405930117   -0.81242870785128    0.00416042437381
N           3.35720831603356   -0.97821658593228    0.00819805859801
N           6.28198040683991    0.95122501750614    0.02209607452061
N           7.28567300055082    0.15953125239970    0.02283756201880
C           8.51046723631709    0.74013528709655    0.00576183411608
N           8.80436474187287    2.08558945807033   -0.01023497643072
C          10.09235132629034    2.18338931347652   -0.02050802246255
C           9.69078598589881    0.00892181509733    0.00416918315040
N          10.65747537032453    0.94830619419676   -0.01261895327595
F          11.99795322358839    0.68127249705399   -0.01994024601184
H           0.86523912782219    1.06013785834981   -0.04003783335327
H           0.84065074634367   -0.67262541955450   -0.03513101145246
H          10.66173494179850    3.09027809427717   -0.03315945084437
H           9.88211848094407   -1.04220667573333    0.01282004867592
