30
         -60.077728427301          0.000338615391
C           0.91627975534908   -0.87285162582291   -0.05588949345951
N           0.77728605274624    0.46734757152312   -0.05658182580807
C          -0.51045295739277    0.69981584809116   -0.02076656309258
N          -1.22825076745668   -0.44002973084436    0.00354563240421
H          -2.22752286487649   -0.56447874752653    0.03230279136077
C          -0.32782540248590   -1.47690671078217   -0.01844338903579
C          -0.74574781839772   -2.83587476947712   -0.00273992869625
S           0.34603532515890   -4.19387113657151   -0.02847498251128
C          -1.13035620278408   -5.18768404152834    0.01403244939341
N          -2.21124756352369   -4.46681403062391    0.04092043282825
N          -2.00852410919030   -3.18050174437407    0.03198027246134
N          -0.96319932900543   -6.52000319927723    0.00886098591409
N          -2.02238412429318   -7.23859308517928    0.04333869586512
C          -1.85967852006548   -8.57692808661643    0.03411943979474
N          -0.68836025237144   -9.30171504535173   -0.00389133501018
C          -1.03721018538400  -10.54013185368398    0.00251787690062
C          -2.93500523008156   -9.45672723914080    0.06382598902029
N          -2.40657716286690  -10.70674209857347    0.04316468666239
C          -3.07740966470081  -11.91433942755586    0.05801411364325
C          -2.61503566831839  -13.20945830641801    0.03723739936953
N          -3.66271197559062  -14.06663246004855    0.06511571407482
C          -4.73691342738789  -13.33413792467509    0.10148558488235
N          -4.44484967349976  -12.00838394274560    0.09933934562696
H          -5.09610913643747  -11.24113212495263    0.12317461826397
H           1.88101376184816   -1.33775556907013   -0.08185729092609
H          -0.95003573604727    1.67713322765809   -0.01169268838672
H          -0.36244394519536  -11.37152596719064   -0.02039797776994
H          -3.98161940714177   -9.23906004280386    0.09576912084585
H          -1.60808516088033  -13.57000573613253    0.00458357848532
H          -5.73819860972708  -13.71225200030566    0.13009674689915
