20
         -40.304794921469          0.000362719478
N           1.46721599077982    0.21824393844472    0.06919470078179
C           2.81187603955821    0.18299299473476   -0.04791364651876
S           3.84059023491124    1.47183925742526    0.57244245487526
C           5.19073824995687    0.41082810565010    0.06385478106140
N           4.77525384713954   -0.68571550180665   -0.48900467905454
N           3.46841362221229   -0.80744324949227   -0.56735307941627
N           6.41811363541230    0.92529084273233    0.09322182638050
N           7.43783108074605    0.17648292633344    0.21020636907093
C           8.65361112676326    0.74003082812024    0.03620420923335
N           8.94949628423530    2.02690887632874   -0.33475964676318
C          10.24119859820423    2.09219846477178   -0.38989461814952
C           9.84141577905727    0.03045114222663    0.20669696224840
N          10.83144048581243    0.90422532766141   -0.06203668180386
N          12.19012032985501    0.62672361836790   -0.11263531974817
H           1.02355638575659    1.10903543553142    0.20938718744074
H           0.95962634148435   -0.47828661465949   -0.45079471932765
H          10.80761526653881    2.96388753389538   -0.65165653395546
H          10.00870787405273   -0.98841849287924    0.48577461431663
H          12.41148279462573   -0.17349968285018    0.47205916335180
H          12.73044603289797    1.43799424946368    0.17340665597662
