30
         -59.598265394941          0.000321338106
C           0.90501823608245   -0.83461096723565   -0.04858946233471
N           0.75636996009859    0.50476815208481   -0.04756414468366
C          -0.53306517808572    0.72778556962970   -0.01377185757969
N          -1.24251623738560   -0.41730871842119    0.00750851547027
H          -2.24081225674540   -0.54981892576960    0.03420920776171
C          -0.33456684606018   -1.44761976434643   -0.01439470010639
C          -0.74493096063762   -2.80914612449184   -0.00120960618661
S           0.35279418265993   -4.16267648356512   -0.02852450328951
C          -1.11983805660483   -5.16295624834196    0.01087347433242
N          -2.20324069456893   -4.44650394668078    0.03895257245045
N          -2.00588077253797   -3.15921614634747    0.03256091391087
N          -0.94842761331329   -6.49519543096941    0.00684869298842
N          -2.00801653683435   -7.21392469769841    0.03141282699721
C          -1.84910524901173   -8.55195064074764    0.02630941924989
N          -0.67660490955110   -9.27875240920275   -0.00159719800693
C          -1.02966863386830  -10.51523963852709    0.00342297658555
C          -2.92617450263890   -9.42937478897319    0.04859240178378
N          -2.39957263059623  -10.68007680177939    0.03371989164828
C          -3.08423800613877  -11.88047398138143    0.04493226913875
C          -4.43577652238209  -12.07813368148303    0.07487143914502
C          -4.77634884465449  -13.44701567664722    0.07685829442192
C          -3.69264596574821  -14.26238265688567    0.04871742971814
S          -2.21468569974250  -13.38503640474023    0.01880119560823
H           1.87307922153774   -1.29259641730899   -0.07333726370138
H          -0.97982361349303    1.70184512550138   -0.00404503051044
H          -0.35780959456517  -11.35114425185337   -0.01364495463324
H          -3.97399408181343   -9.22138291328897    0.07250436996582
H          -5.16065757598775  -11.28591815833545    0.09474931178524
H          -5.78970250912373  -13.80398412881231    0.09838586593400
H          -3.66238810828936  -15.33326884338134    0.04345765213657
