20
         -40.697184240597          0.000713815742
C           1.80202009671982   -0.79071872944248    0.32481363258783
O           2.93282742139409   -0.14079697015444   -0.23750896304464
C           3.34906315760987   -0.63125363618342   -1.39036488238481
S           4.77419415862479    0.05475870872055   -2.15539799020473
C           4.48689149251801   -1.19074206314338   -3.40479210382848
N           3.43612224138951   -1.91329351050207   -3.16162762862155
N           2.79977040460805   -1.59396940840159   -2.05111808516197
N           5.18288699916248   -1.11197733153501   -4.53626410969926
N           5.51438274680797   -2.13108241587522   -5.20520795263295
C           6.04568007762654   -1.92715547266751   -6.43560100772322
N           6.20384131985562   -0.73164184197031   -7.09723404837096
C           6.73148468095916   -1.02602073150303   -8.23702521135645
C           6.50625062353732   -2.95960424492860   -7.24251114264213
N           6.93834228235146   -2.37046410312941   -8.38070416920069
H           7.33470473859314   -2.84009174019342   -9.17940981775840
H           1.57607823892457   -0.25192295626327    1.24176430359071
H           2.03123849684868   -1.83663667124981    0.53949099496976
H           0.95734428922717   -0.75075466882713   -0.36580617308349
H           6.98616249004224   -0.31511069555104   -8.99787962577459
H           6.53979404319983   -4.01410151719970   -7.06747601965956
