16
         -33.451894039666          0.000668416581
H           0.91520638853176   -0.31096643183354   -0.05113902105629
C           1.96909105599229   -0.11718200919774   -0.05155850693056
S           2.61036832253964    1.48572727275642   -0.06628025295429
C           4.19567232545994    0.68245085436364   -0.05712840489564
N           4.09029910199908   -0.61058617068298   -0.04621126632433
N           2.85737578499454   -1.05219429897047   -0.04352591058022
N           5.27774815055584    1.48490029155560   -0.06504078399416
N           6.42240127347515    0.91867327710616   -0.05600275037186
C           7.50661525257154    1.72429268269918   -0.06543088544667
N           7.54458422054890    3.10073926643472   -0.08193344228496
C           8.79344604566997    3.41912624168340   -0.08515826297452
C           8.80829306728811    1.23365114964214   -0.05893264317466
N           9.61066774286512    2.32007811929389   -0.07172373748774
H          10.61851623418969    2.31571547523190   -0.07133252626200
H           9.17262491334925    4.42182150427078   -0.09681728982222
H           9.16631011996919    0.22595277564687   -0.04691431543988
