30
         -59.593870606110          0.000429553346
C          -1.14759683889802   -0.37619635903003   -0.00152973089582
C          -0.42357621287123    0.82530726545005   -0.02218317337889
C           0.92431249408155    0.62563785247259   -0.05467231496721
S           1.34154326124123   -1.03600751990758   -0.06050102040941
C          -0.33428168343550   -1.48555718405646   -0.01853509523673
C          -0.75735807194708   -2.84385215736906   -0.00567125226315
S           0.33200534840801   -4.21240737845801   -0.02316799522594
C          -1.14269665730883   -5.19958407266784    0.01117119842417
N          -2.22297259818693   -4.47355402358615    0.02910029827323
N          -2.01895247906752   -3.19072064474294    0.02007750633532
N          -0.97972703155126   -6.53180506345612    0.00438383047034
N          -2.03916763284423   -7.24969070107381    0.04648450801520
C          -1.87532957143347   -8.58811340406329    0.03247845768628
N          -0.70262934865303   -9.31052259037179   -0.01119947450217
C          -1.04895452094835  -10.54971458202158   -0.00416538940410
C          -2.94861626343835   -9.46989293206970    0.06564675661582
N          -2.41758329062227  -10.71917406972305    0.04143948030709
C          -3.08527165939857  -11.92842125104553    0.05818343797561
C          -2.61919617098104  -13.22217325321862    0.03711255343764
N          -3.66433357367798  -14.08249394874258    0.06751739070659
C          -4.74053172334918  -13.35301332975121    0.10576901035490
N          -4.45226267685420  -12.02638837958101    0.10238903512149
H          -5.10561043349723  -11.26092961663468    0.12704403779441
H          -2.21841136053830   -0.45322478337406    0.02486635233673
H          -0.87914706778860    1.79899652541274   -0.01348546293242
H           1.70242150993613    1.36281557235056   -0.07574272231565
H          -0.37253740229957  -11.37970547204933   -0.02983945573431
H          -3.99557696691175   -9.25452238509635    0.10141468615868
H          -1.61122196527641  -13.57972181951099    0.00271867156291
H          -5.74064941188800  -13.73404029408420    0.13658587568940
