17
         -37.971291271666          0.000491003093
H           0.98305288607051   -0.24138109747351   -0.04652519569719
C           2.03855433454837   -0.05676145644053   -0.05487320301056
S           2.69676334886043    1.53710556891174   -0.05610685527151
C           4.27090678621091    0.71803968200110   -0.07066302036551
N           4.15275752039388   -0.57570174368133   -0.07388692154881
N           2.91841983961511   -1.00233413542467   -0.06522365540022
N           5.36526002822213    1.50311911399958   -0.08082922870474
N           6.50103654722234    0.92345294995604   -0.08377510780123
C           7.59129494366950    1.72469772992553   -0.09682450170376
N           7.62572205934752    3.10794475705894   -0.10246924395555
C           8.86084070828722    3.44124812395319   -0.11393985252249
C           8.88417707150356    1.23410197824414   -0.10567074381100
N           9.69918572784136    2.33113680832861   -0.11698786381347
C          11.02651700190202    2.34545689449828   -0.12904442045952
N          12.16954988409961    2.38032431602083   -0.13826638609159
H           9.24484208506164    4.44218429777451   -0.12061729113197
H           9.25264922714389    0.22942621234755   -0.10534650871087
