23
         -46.761518118159          0.000220939730
H           1.01919039784475   -0.32608844344486    0.08765173968326
C           2.07295166538953   -0.13233575408144    0.08005418931531
S           2.71579059839011    1.47027948078410    0.08116269409526
C           4.29918526973624    0.66673645868408    0.06686694608168
N           4.19384585420420   -0.62731427908704    0.06334819629733
N           2.96100262843379   -1.06794074411183    0.07092614703999
N           5.38396731140808    1.46459495311609    0.06008939529926
N           6.52566266350745    0.88886936595799    0.05429297808739
C           7.61545779375863    1.68194305417192    0.04610865375344
N           7.67530778194189    3.05868801243333    0.04436994289547
C           8.92589547286400    3.35913054705943    0.03636355721995
C           8.90915836842527    1.17295063290976    0.03842295712132
N           9.74068785730882    2.24435567249018    0.03214735718840
C          11.12227528472569    2.25255780210805    0.02358194405297
C          12.02159425445716    3.29336204358259    0.01634171217113
N          13.28343713372550    2.80347160408368    0.00942016516724
C          13.17524424953139    1.50718479054642    0.01226633934309
N          11.87779594210136    1.10820152452054    0.02087906744860
H          11.53218544137969    0.16266691385875    0.02459649249292
H           9.32159983650100    4.35429230703079    0.03317926853061
H           9.23039446431315    0.15277111378200    0.03708917216521
H          11.83908512681625    4.34775357047567    0.01567801836470
H          13.99797460323607    0.82203937312983    0.00837306618545
