25
         -49.692710722998          0.000616832317
C          -1.04400666352876   -0.34937289633559   -0.35334534462260
C          -0.31773665445842    0.83757663103326   -0.16772670840990
C           0.91317714945177    0.62201556781477    0.37376123145402
S           1.21560463371661   -1.04060579672634    0.66947607595084
C          -0.35065143699057   -1.46476239256541    0.05325694196930
C          -0.80856813353340   -2.81038746144879    0.00204119843686
S           0.13262289274506   -4.18903254416024    0.57737983687839
C          -1.28619968802237   -5.15401162857658    0.12415983142867
N          -2.24084727795960   -4.42631305989575   -0.40216418199704
N          -1.96772697433716   -3.15532795653549   -0.47285656101875
N          -1.17453875775736   -6.47232543866440    0.09944891431823
N          -2.10628078121715   -7.27212676850687    0.39330877015569
C          -1.94232293496470   -8.57875865206626    0.09374858708593
N          -0.90908445415197   -9.16438117943845   -0.59125105193536
C          -1.19638408677153  -10.42436830474758   -0.65702786672073
C          -2.87279109285761   -9.55801366535317    0.44227753369538
N          -2.37972260435689  -10.71582490262047   -0.03654072319270
N          -3.00364428392620  -11.95278510679558   -0.01160004284957
H          -2.03368096177435   -0.41080968778668   -0.76561125470769
H          -0.69059084993293    1.81283656144970   -0.42452568902867
H           1.66633030106622    1.34414382494939    0.61951487321685
H          -0.59365097223842  -11.17319733275157   -1.13145264795171
H          -3.79930588082222   -9.48108094258936    0.97123388041811
H          -3.63093507719069  -12.02479895644974    0.78374873234342
H          -2.31597541018794  -12.70000791123285    0.00285566508368
