24
         -51.288241193535          0.000568403760
C           0.92469837618599   -0.87691021595743   -0.00908295515129
N           0.79644746020100    0.46281085373554   -0.00961743920610
C          -0.49046903092990    0.70630352588759    0.00228839548859
N          -1.21804824237107   -0.42659852425941    0.01068044724036
H          -2.21892912222293   -0.54185327904445    0.02028102801235
C          -0.32612506901839   -1.47144010482935    0.00357577046709
C          -0.75428670831552   -2.82575413783435    0.00864572522220
S           0.32229187027122   -4.19325557866563    0.00042709553387
C          -1.16535081031953   -5.17212296156740    0.01367864751466
N          -2.23913335138604   -4.43879779490205    0.02197319849603
N          -2.02369653818702   -3.15856720462114    0.01924481915930
N          -1.01424892226628   -6.50548991083448    0.00910965856544
N          -2.07492056584383   -7.21784048787067    0.02309149134951
C          -1.90449792402971   -8.55999112987771    0.01456276879170
N          -0.71410311616676   -9.26516268478270   -0.00325831323428
C          -1.02587638765676  -10.50614166816972   -0.00512970908447
C          -2.96332340146909   -9.44896285502160    0.02337189998820
N          -2.40328510146211  -10.69699342708219    0.01054732933012
C          -3.03851556786679  -11.86174709040540    0.01236480975269
N          -3.56603412949047  -12.87675427361741    0.01180484536011
H           1.88593872016669   -1.34977346645424   -0.01771627982546
H          -0.92090166953414    1.68770393915451    0.00502896696754
H          -0.33989323251580  -11.33000510744705   -0.01699537938666
H          -4.01983753577275   -9.28057641553328    0.03663317864853
