30
         -60.425530416713          0.000929385889
C           0.94982961504124   -0.87041001384964   -0.05828479221205
N           0.80826817830970    0.47001442280849   -0.05965172617784
C          -0.48003997810142    0.70013376452956   -0.02935644671432
N          -1.19535374047105   -0.44122978943674   -0.00832916668940
H          -2.19448863194120   -0.56809098551554    0.01601272354806
C          -0.29316668410676   -1.47648574492663   -0.02629967956297
C          -0.71779307055468   -2.83354442905217   -0.01211139320211
S           0.35797152228717   -4.20487687389136   -0.02414181834317
C          -1.12990142327232   -5.18109376058403    0.00924872388937
N          -2.20251577095475   -4.44757793019115    0.02275949295796
N          -1.98473021731458   -3.16394878577605    0.01122644747483
N          -0.98314395000887   -6.51639802984747    0.00349432181258
N          -2.05550829907622   -7.21427491675691    0.05060265086881
C          -1.92151573620597   -8.55559456759373    0.03618110447962
N          -0.76037311509959   -9.29961552117738   -0.00863742070666
C          -1.12827991139081  -10.53186031594687   -0.00105255098305
C          -3.01164889006423   -9.41645825125728    0.07044181981848
N          -2.50095060009777  -10.67379341294026    0.04551722333986
C          -3.20257688873394  -11.86358736116861    0.06259496901899
C          -4.54546128652888  -12.12165824069256    0.10298812879316
C          -4.65779673817953  -13.53302079634076    0.10041596231487
C          -3.38828602927118  -14.01697683218202    0.05914428869339
O          -2.49512047343531  -13.00849966735092    0.03578631846906
H           1.91633727012844   -1.33176109006954   -0.08044505802934
H          -0.92248718365073    1.67619137265880   -0.02196789049368
H          -0.47189294312056  -11.37864449861945   -0.02676356773487
H          -4.05788301411453   -9.20154728220578    0.10672700392723
H          -5.34359016443569  -11.41016705010522    0.13043040267878
H          -5.56413025340736  -14.10109156802587    0.12589122398897
H          -2.99652159222880  -15.01361184449298    0.04287870477542
