25
         -50.518803551978          0.000737797698
C          -1.12386726410179   -0.24120925725667   -0.36873940451037
C          -0.23308731751676    0.81354729416240   -0.09059999480948
C           0.88670538895635    0.23455115394417    0.43208913833595
O           0.75176293836698   -1.09586132066358    0.49771577965807
C          -0.47267702820057   -1.39461115543629    0.01008646751676
C          -0.90870626486694   -2.74937977346776   -0.04505619367439
S           0.07597955996305   -4.09299146661274    0.52888388521960
C          -1.31675088688873   -5.09982984273750    0.08314648057051
N          -2.29466141043618   -4.40278683058774   -0.44070731398039
N          -2.05967190720255   -3.12326373034394   -0.51563115393388
N          -1.17139320942657   -6.41676419734560    0.06655559966903
N          -2.09022990953254   -7.22940492625817    0.36816918516558
C          -1.90733388782912   -8.53681921537224    0.08453217290637
N          -0.86524535359341   -9.11990355540902   -0.58949022718050
C          -1.13944687498687  -10.38348835268397   -0.64169748171688
C          -2.82867815760555   -9.52185711818797    0.44113831055961
N          -2.32229464258735  -10.67987971516456   -0.02254846372673
N          -2.93389227831436  -11.92274018940994    0.01180546832911
H          -2.10685208381727   -0.18710607835246   -0.78665323135988
H          -0.39910795568519    1.85825056968909   -0.25518619444366
H           1.81066706849660    0.65064848706691    0.78266125102844
H          -0.52701259785231  -11.13204160946499   -1.10393499223150
H          -3.75842347635306   -9.44746257198969    0.96493583248512
H          -3.58913330910247  -11.98018352603120    0.78553896816300
H          -2.24062913988369  -12.66283307208703    0.07050611196012
