24
         -43.600891054115          0.000823575278
C           1.86901885027141   -0.88756906590482   -0.12088939932465
O           2.83962522605639    0.04606409450386    0.32835865521191
C           3.35994698422948   -0.20932129340183    1.51519702421484
S           4.59670850296042    0.85694009067728    2.15902469513987
C           4.59510894477369   -0.26740692946081    3.54618792661573
N           3.73504370344502   -1.22696259295792    3.41473982715078
N           3.04436590069526   -1.19229021956066    2.28896819250520
N           5.31275902074315    0.06550769900616    4.62424156827741
N           5.70506019562619   -0.86043282174742    5.41676703022608
C           6.26449855929238   -0.50407945537287    6.57940355249157
C           6.49472733911168    0.71703386180940    7.23490446860390
C           7.10658849959890    0.41942427946873    8.44229462076765
C           7.23888078813091   -0.96096983167250    8.50922220974702
N           6.73295349753435   -1.50990406651745    7.39627204586134
C           6.68821167745116   -2.90711055637098    7.06845807915041
H           1.55204368864475   -0.53763413490172   -1.10044191148936
H           1.02383228565476   -0.92017804040765    0.56941169828195
H           2.30419497429470   -1.88640724368830   -0.19094986406531
H           6.23393390456221    1.68062307600966    6.84606509462270
H           7.42252794169190    1.11545577538739    9.19398917842718
H           7.66071112943809   -1.56417171769032    9.29054076837760
H           6.33942533562431   -3.48506973843912    7.92480165666374
H           7.67844876869148   -3.26612499301891    6.77749900610629
H           6.00414428147368   -3.03373617574441    6.23089387643775
