31
         -60.499841257180          0.000914715731
C          -1.31510722316293   -0.28520892379024    0.10855878997092
C          -0.41836508873995    0.79711448066566    0.19366452513943
C           0.82750837424628    0.24809341153378    0.29343941229278
O           0.76429169004366   -1.08736752930255    0.27603513485324
C          -0.54000312639079   -1.42255969188306    0.16350604908564
C          -0.91217730701876   -2.79730006629177    0.12123375224225
S           0.26128761101683   -4.09305414006585    0.20844388422072
C          -1.14392675680335   -5.16755919282190    0.08438227514288
N          -2.26681006303249   -4.51353396308937   -0.00313793125046
N          -2.14279821532057   -3.21598455828452    0.01680384836931
N          -0.90410542991133   -6.48778155164519    0.10129641072107
N          -1.93812170489111   -7.25498323256516    0.00116955058777
C          -1.72440885119153   -8.57167881534181    0.02289381140610
C          -0.57260699405261   -9.36628694346329    0.13259730603105
C          -0.97873497803570  -10.69295053018216    0.09481660330575
C          -2.35639936308165  -10.70383282955500   -0.03533278640520
N          -2.80980342049651   -9.43185976004683   -0.07932969944749
C          -4.13585815964414   -9.06136636444234   -0.20330240248845
C          -4.74199692322168   -7.83675159268125   -0.26063588176293
C          -6.12563703912487   -8.10960664745754   -0.38913596451247
C          -6.25340240634172   -9.46265612369170   -0.39990354734021
O          -5.04689577233523  -10.05535536648810   -0.28720566494774
H          -2.38046822806820   -0.25706425984783    0.01930177396838
H          -0.66155297133786    1.83950011546220    0.18269912458202
H           1.80026019335381    0.69092662218235    0.37930022091760
H           0.42315957821116   -8.98252891399622    0.22614521948490
H          -0.35053210275161  -11.55966530461258    0.15460869352644
H          -3.03279561976316  -11.53362527075110   -0.09829073740084
H          -4.25670444382328   -6.88480063620233   -0.21581849101280
H          -6.91262350899059   -7.38837323650541   -0.46291322826613
H          -7.10435174934006  -10.10880918483898   -0.47840005101344
