31
         -60.157573834422          0.000268093525
C           0.80949612761266   -0.85152623707933    0.23991449561563
N           0.64385805242072    0.48628267056458    0.23881986041234
C          -0.64646064430355    0.69244418633604    0.16990740619980
N          -1.34061191701979   -0.46229590345815    0.12560048719728
H          -2.33625214585561   -0.60482544336427    0.07124910033641
C          -0.42019057208364   -1.48022881915512    0.16929188478645
C          -0.80064419438509   -2.85026442118089    0.14048886669925
S           0.34611208081723   -4.16818559801113    0.17030114351813
C          -1.08845422845763   -5.21625149941515    0.09754601347072
N          -2.19857802781425   -4.54000648980001    0.06586288175751
N          -2.04453539977376   -3.24334195606064    0.08908356722183
N          -0.87442856486800   -6.53997165334952    0.11323653733642
N          -1.92025184611825   -7.28843838598747   -0.00608159748966
C          -1.73029463554658   -8.60851064065934    0.02938237478703
C          -0.59263546565673   -9.42160644761964    0.15227076191071
C          -1.01944952877449  -10.74127961756508    0.10631708220329
C          -2.39572173714683  -10.73004340761897   -0.03879782027671
N          -2.82824168560771   -9.45088742105498   -0.08652681675873
C          -4.14763804680636   -9.05931739378707   -0.21733737429972
C          -4.73641658092287   -7.82553861789850   -0.25850350740203
C          -6.12237345287414   -8.07631767698527   -0.40317466287906
C          -6.26892888776412   -9.42716326673689   -0.43796908364483
O          -5.07207439786908  -10.03835009214827   -0.32529613945386
H           1.78229590536044   -1.29725466578936    0.29113914283519
H          -1.10557991694711    1.66054180401871    0.15014502552914
H           0.40802252141598   -9.05330385883643    0.25556764388138
H          -0.40594825474095  -11.61816818678031    0.17032561450950
H          -3.08451125170756  -11.54887657024403   -0.10962134873358
H          -4.23769688603780   -6.88179665589158   -0.19332613433000
H          -6.89897085264266   -7.34324117080382   -0.47081532761533
H          -7.12817556590176  -10.05977656363729   -0.53410007732468
