24
         -50.174484496679          0.000694284312
C          -1.16611617583269   -0.32657103960569   -0.00204647677609
C          -0.44856234841864    0.87894676016939   -0.00814250253328
C           0.90099052310320    0.68755796329271   -0.00627506335653
S           1.32827473993446   -0.97112889708409    0.00289310306145
C          -0.34572716037730   -1.43084031455415    0.00431646486452
C          -0.75672605649129   -2.79220490222085    0.01297845421579
S           0.35168684347248   -4.14565013277899    0.02286991667414
C          -1.11362446286525   -5.15320337636961    0.03116956354697
N          -2.20195359878755   -4.44077165538497    0.02602132305547
N          -2.01321368281685   -3.15629782275162    0.01616036920150
N          -0.92429224732361   -6.47855176453211    0.04536164431010
N          -1.96748284180821   -7.23159128329966    0.05049716118336
C          -1.74148813771955   -8.55352757190400    0.06906795249145
C          -0.59999710458436   -9.37064909222788    0.08511691098907
C          -1.02486534586750  -10.69327111136994    0.10206709167017
C          -2.41036720282664  -10.69393150248792    0.09662378168604
N          -2.80506746703795   -9.41536861802886    0.07686145824064
F          -4.11066029710528   -9.03799133402512    0.06666482059351
H          -2.23678830701372   -0.40973429651502   -0.00211444566032
H          -0.90960389717073    1.85001723841257   -0.01340167136353
H           1.67513995449998    1.42914785429202   -0.00956449016673
H           0.40576767721261   -9.00198153889632    0.08379413290961
H          -0.40324442684766  -11.56632722686405    0.11685086475191
H          -3.11292897732801  -11.50289633526589    0.10547963641081
