26
         -49.908248633305          0.000796296783
C           0.78141991291909   -0.81400663057704   -0.03418385907972
N           0.57014408457548    0.51781618470933   -0.04393603047861
C          -0.72795027753192    0.68001565779969   -0.02727729598556
N          -1.38331276996257   -0.49780910582839   -0.00792622974031
H          -2.37431444711000   -0.67683601940201    0.00832008357850
C          -0.42763744636703   -1.48369932042755   -0.01144936017451
C          -0.77016738915351   -2.86440847177830    0.00450034387487
S           0.40768498542666   -4.15512862321587    0.02491248232011
C          -1.00281035572642   -5.23540447484054    0.03476333176499
N          -2.12966731150162   -4.58683618171106    0.02227040164602
N          -2.00537338239489   -3.28589271763780    0.00634616355080
N          -0.76471703255855   -6.55567270217401    0.06085748228836
N          -1.81014563593614   -7.31488283699227    0.05655981164913
C          -1.64212299202354   -8.63517466494547    0.07599033410750
C          -0.56204709438934   -9.53935736548295    0.08763840354011
C          -1.10090861389570  -10.81108888084134    0.06448475202030
C          -2.49056483265668  -10.68740492529058    0.05162977433793
N          -2.80147236466272   -9.38912127373248    0.05684432172883
N          -4.06424604988583   -8.83079244117199    0.12570453127645
H           1.77052389660385   -1.22513921144139   -0.04452912254662
H          -1.22082382523980    1.63154599016461   -0.02882310109039
H           0.47092178663092   -9.25774196599885    0.11191624485870
H          -0.56291499725204  -11.73834261131791    0.06034977773272
H          -3.24583818267359  -11.44840980122871    0.03088743628535
H          -4.62429864658192   -9.06758702313052   -0.68993339056199
H          -3.93259101865293   -7.81928058350664    0.17926271309748
