17
         -33.183420302235          0.000605415532
H           1.11702324654707   -0.40285034093201   -0.07759920941451
C           2.15904795492434   -0.15462518909732   -0.07410192371231
S           2.71528547177220    1.48333405416301   -0.08640437616792
C           4.34042699139994    0.76532917988117   -0.07169375516928
N           4.30517338562612   -0.53231571121628   -0.05910640481866
N           3.09573777654405   -1.03844540912538   -0.06056208203415
N           5.38134373647746    1.61638608362428   -0.07081329554262
N           6.55618016925961    1.08689028896574   -0.07066842146951
C           7.60303512864534    1.91919323864388   -0.06612418735767
C           7.76960142630897    3.31400694490064   -0.06313088206519
C           9.13552260857023    3.56150291059562   -0.06061367918552
C           9.78241304695193    2.33485067645705   -0.06168061986546
N           8.85895537400832    1.36175652598103   -0.06522977296471
H           9.02024429676835    0.36735118199938   -0.06635949074113
H           6.97165620454771    4.02864600236096   -0.06347167084224
H           9.61265257282637    4.52163480949710   -0.05834115508654
H          10.83378060882202    2.12118475330115   -0.06014907356259
