20
         -41.149310735499          0.000542116231
N           1.36561551897099   -0.02342483635840    0.01234774841464
C           2.70555016346400   -0.03192213484927   -0.04454356019283
S           3.66452965386260    1.43467369114110   -0.03823833682254
C           5.07113361497964    0.31546429064431   -0.06447357608151
N           4.70376071725951   -0.92441763289156   -0.07690633402187
N           3.41531120819263   -1.12872693478469   -0.06777757465291
N           6.27818513809008    0.88587597962560   -0.06861938653253
N           7.30859265385800    0.11421002624291   -0.08026813083374
C           8.50451714346359    0.72860313753395   -0.08190828408306
C           8.93361034641534    2.05239342191064   -0.07279650962141
C          10.33384393023841    2.04499181193223   -0.07745994453476
C          10.74831174973984    0.73667973407820   -0.08940281872822
N           9.64518738823318   -0.06923018542632   -0.09233622025168
C           9.66860221053282   -1.39634442231885   -0.10355891910065
N           9.73983422158677   -2.53764762758399   -0.11380570902043
H           0.86178903279242    0.83336439782901   -0.12638381950796
H           0.88994243154783   -0.90102575439217   -0.10819270075025
H           8.28452965090185    2.90471596157702   -0.06367306109263
H          10.97458534357717    2.90464118088474   -0.07243939814354
H          11.73641788229333    0.31891589520556   -0.09582346444212
