31
         -59.818941666254          0.000221854618
C           0.61558111684782   -0.85054200653408    0.34200269892348
N           0.35322083475460    0.47099641126564    0.31670826924435
C          -0.93657855748699    0.58237337696602    0.12578688499804
N          -1.53729785574795   -0.61978577295262    0.02400803546874
H          -2.51041979028066   -0.83449809372883   -0.12296324848414
C          -0.55305843027576   -1.56771470140964    0.16094178785552
C          -0.83277963659995   -2.96071579256048    0.11027636998673
S           0.39153549430052   -4.19974509899176    0.28296871988791
C          -0.94895826486616   -5.33661521348242    0.08994954355397
N          -2.09726060161212   -4.74334341999535   -0.07741135421411
N          -2.03396107919725   -3.43767119924970   -0.06682078792636
N          -0.68497168975101   -6.65521927506924    0.11540616811356
N          -1.73877581712253   -7.39913844108038    0.02645968167651
C          -1.61137312445861   -8.72288112943502    0.02568493564404
C          -0.52231942573922   -9.60817327338922    0.10832016966469
C          -1.03717095982010  -10.89289257076103    0.06739538779302
C          -2.41730994434419  -10.79030087353015   -0.04054499789910
N          -2.76833609066460   -9.49061295042515   -0.06604733443559
C          -4.05913735983031   -9.00014534131141   -0.17063686514554
C          -5.27411867291773   -9.64670911396505   -0.25819061431031
N          -6.26529944231805   -8.73148353526696   -0.34572273568701
C          -5.68424257983501   -7.56129352792175   -0.31400671293309
N          -4.34209418651145   -7.66325814103587   -0.20815571209655
H          -3.61753022337145   -6.94939325826561   -0.15707593496724
H           1.60964808767483   -1.22295012365736    0.48639043729160
H          -1.46144162974581    1.51411876169996    0.05732997147822
H           0.50211784321392   -9.30576849785216    0.18933539286137
H          -0.48339298850275  -11.80979081635882    0.11020914217080
H          -3.15180305648763  -11.56871327507379   -0.09944055654353
H          -5.49068021747341  -10.69519757047111   -0.26243514475810
H          -6.19907175183119   -6.62381553615814   -0.36505159721191
