31
         -59.673670625975          0.000359863372
C          -1.22621717373920   -0.38996718450291    0.13494641620633
C          -0.52465504262776    0.82473732464470    0.18553154052198
C           0.82351138557677    0.64978017947943    0.27570708965777
S           1.26892427803631   -1.00486024977098    0.30037461316368
C          -0.39556819202235   -1.48437627168147    0.18718024668674
C          -0.78493307110911   -2.85287960699657    0.15569628501647
S           0.35326160116187   -4.18610500250318    0.20421791311631
C          -1.08324587853275   -5.22190532208970    0.11295378921773
N          -2.18913887146748   -4.53556930763229    0.06355515899963
N          -2.02835048056155   -3.24306465009688    0.08649504101343
N          -0.87724222967259   -6.54648661507667    0.12467641884645
N          -1.92659765639245   -7.29137858095243    0.01244926764435
C          -1.73794142982474   -8.61224671080578    0.03581288823959
C          -0.60056272773059   -9.42761308090013    0.14544206482529
C          -1.02965104176747  -10.74656883712982    0.09607141709157
C          -2.40671460274026  -10.73254120742488   -0.03912016141054
N          -2.83776827287934   -9.45245244023497   -0.07648033629339
C          -4.15767499333285   -9.05973228001840   -0.19886613036209
C          -4.74643707434873   -7.82592478952921   -0.23860253915329
C          -6.13334203701425   -8.07675036960727   -0.37449762955868
C          -6.28047270465381   -9.42756073198879   -0.40614244225523
O          -5.08304066948988  -10.03893484158783   -0.29990884915539
H          -2.29348505774017   -0.48466879112797    0.06260402525252
H          -0.99664140018910    1.79024371055480    0.15625860649410
H           1.58771423447415    1.39973533649935    0.32951173304866
H           0.40117462018961   -9.06110950563860    0.24407221762728
H          -0.41742743402514  -11.62497845178062    0.15124951721726
H          -3.09695915101960  -11.55013422878202   -0.10989488633340
H          -4.24798537088170   -6.88171999671466   -0.17821994154059
H          -6.91008011560629   -7.34354428590497   -0.43885968963130
H          -7.14018344007012  -10.06048321069869   -0.49620364419318
