19
         -40.788734293218          0.000575649599
N           1.33271591625440    0.08726721568445    0.11351195628210
C           2.67439021200512    0.08531807900738    0.04423413554949
S           3.62392441846568    1.55904449917955    0.04806371835321
C           5.03724729169620    0.44950453939399    0.01738681303961
N           4.67917894980877   -0.79198870707497    0.00483496487946
N           3.38975693946192   -1.00541363578837    0.01727664382908
N           6.24228675904779    1.02857910691465    0.01073121699024
N           7.27417799525772    0.26058149087644    0.00151904172382
C           8.47128359383733    0.86962384532366   -0.00131614736909
C           8.91977153133938    2.19837506913393    0.00502548881450
C          10.31018841721086    2.17811539750667    0.00347553687247
C          10.71497740936863    0.85446408359305   -0.00400072142790
N           9.60561203360083    0.10413836088353   -0.00686733663062
F           9.62560242160153   -1.25570235116417   -0.01456820254015
H           0.82781335764728    0.93862026231365   -0.05377624242705
H           0.86479368574040   -0.79183588667159   -0.02690752642721
H           8.27472321998504    3.05352561613757    0.01047174476456
H          10.96367156701110    3.02772513510470    0.00764800404532
H          11.69313428066003    0.41738787964588   -0.00687308832185
