25
         -51.360815844670          0.000515021990
C          -1.26730342170152   -0.24755163635228   -0.00077070201436
C          -0.37315789431633    0.83838141835160   -0.00361110152209
C           0.88049636283245    0.29511161622753   -0.00169264408479
O           0.82416445860267   -1.04014262022373    0.00209757425335
C          -0.48345887731748   -1.38231090338731    0.00274325198257
C          -0.86525094282345   -2.75287186176243    0.00853343362195
S           0.28449995139130   -4.06721105238022    0.01533365132759
C          -1.15098484531345   -5.11802546236119    0.02216539569539
N          -2.26153316689942   -4.43853089963949    0.01883464004216
N          -2.11183981766480   -3.15016937354785    0.01145410261713
N          -0.93457066675607   -6.43973178869121    0.03553899386696
N          -1.96992721414125   -7.20501904371803    0.03733383039820
C          -1.73338953966827   -8.52566321304631    0.05738391877598
C          -0.59256019629060   -9.32550574594782    0.07825298676736
C          -1.01081343735532  -10.66027291622809    0.09484068245651
C          -2.38456554309818  -10.67184541159849    0.08431816119722
N          -2.83106281507396   -9.38267344191513    0.06141881778520
C          -4.10729086258730   -9.01451253700278    0.04621223397873
N          -5.21872146925512   -8.74701826140403    0.03438823499391
H          -2.33669205476679   -0.22833617362446   -0.00108444548633
H          -0.62189352383771    1.87946602539280   -0.00650064026865
H           1.85396568756838    0.74482621687476   -0.00257775843775
H           0.41246994409210   -8.95425207458332    0.08044665382845
H          -0.37825547533593  -11.52574612021577    0.11273237939769
H          -3.07308464028392  -11.49469473921676    0.09148834882765
