17
         -37.341888915121          0.000715729648
H           1.07612285608905   -0.34404650715356   -0.08444828141225
C           2.12177848906835   -0.11071093352903   -0.08201978130630
S           2.70124882925883    1.51633578084583   -0.09008234238073
C           4.31719383851334    0.77234309553149   -0.07940672371712
N           4.26050726407036   -0.52354281938718   -0.07031816227478
N           3.04582534311005   -1.01010808623561   -0.07157356625468
N           5.36704093876489    1.61207200520459   -0.07867663268201
N           6.53812322814951    1.08404271435567   -0.07702179161304
C           7.57797978787900    1.92859394842240   -0.07405629309400
C           7.73515727848735    3.32461586919375   -0.07335077699446
C           9.09644419485987    3.59792065176808   -0.07067226678492
C           9.77267649798694    2.38740956201668   -0.06954149911476
N           8.85008414855802    1.42002286977145   -0.07176849980159
F           9.15524342367556    0.09695755261519   -0.07110435982940
H           6.92312064400664    4.02324920700571   -0.07501087573641
H           9.55649432990786    4.56600393152473   -0.06968406955505
H          10.82194890761440    2.16964115804986   -0.06737407744851
