28
         -53.746500971159          0.000483893921
C           1.53632442869133   -0.99244964408175   -0.36013591436634
O           2.44781547427522   -0.43263448067811    0.57527325880840
C           3.06991666463297   -1.29755964489900    1.35025809227791
S           4.21127380548977   -0.71603077101660    2.54786188971401
C           4.40750877380764   -2.43468447303369    2.94490486482718
N           3.67132346775424   -3.21221277810634    2.21392529136964
N           2.92578066079403   -2.58253727363753    1.32640441199376
N           5.25906527791546   -2.77682718604626    3.93181934383538
N           5.33149413456040   -4.05082672500388    4.13086569792682
C           6.12503768136137   -4.53089472771351    5.08416950299301
C           6.99002376017344   -3.95801329895206    6.03221979714674
C           7.53992248660266   -4.99772279078144    6.76350495082202
C           7.01707767828233   -6.18392996138348    6.26763519205322
N           6.16737507147635   -5.91072761478897    5.25943517692127
C           5.45933115136867   -6.84285715907017    4.51909232398147
C           5.42185703320584   -8.21973746330617    4.58857656358248
N           4.57635064690353   -8.69504889557917    3.64674548030976
C           4.10793755692549   -7.64950160030874    3.01760976723872
N           4.61025198230332   -6.49539231887486    3.50566835218244
H           4.44400800706254   -5.52700445082374    3.23706967256735
H           1.12361114153927   -0.15055529722705   -0.91059715837187
H           0.74614376128845   -1.53844762507222    0.15847615192645
H           2.05436863051623   -1.67717951074092   -1.03395587518180
H           7.16497966522453   -2.90655147966883    6.13819264966200
H           8.24248815251792   -4.91689233683453    7.56918835048954
H           7.20729967883280   -7.19115040874867    6.58101363513129
H           5.94221971533990   -8.88428263576114    5.24725401605120
H           3.40808351115434   -7.68833744786112    2.20817451410873
