24
         -46.842288086786          0.000534465205
H           1.03642691795732   -0.53015204894599   -0.08459379654939
C           2.06692953985591   -0.25647525636432    0.01472845067603
S           2.71336354037579    1.17250278263541   -0.73471208720605
C           4.25441618956420    0.65228003194835   -0.02880530147894
N           4.13908199708853   -0.44118175620668    0.67012803158514
N           2.92223283498939   -0.93479660245985    0.68941784808205
N           5.30355786450887    1.47770660158876   -0.10225896203767
N           6.48264225364109    0.98213841139823   -0.06326343030358
C           7.52153727728306    1.81406390685615    0.04089324689348
C           7.65412191358767    3.20859793262007    0.11790995529891
C           9.01161479494302    3.49290871877007    0.17207026969196
C           9.69226126170978    2.28827699359405    0.13678112786603
N           8.80192811970364    1.27634215453976    0.05720788227001
C           9.12091321673547   -0.06904764228060    0.02659541116142
C           8.34723035346014   -1.19459308722118    0.09803590309944
C           9.25387308974860   -2.27910361453215    0.02210605673094
C          10.49563466994001   -1.73652028099488   -0.08446991950201
O          10.42827654954017   -0.38989800425866   -0.08248935502251
H           6.83535315075520    3.89965694412452    0.12044872314603
H           9.46342989348515    4.46324559908058    0.23177874598031
H          10.74672085527997    2.09531515262451    0.16644280957017
H           7.28309602280983   -1.23032340309399    0.19514590435996
H           9.00574115252184   -3.31966012855196    0.04746440559389
H          11.47079654051561   -2.17261340487007   -0.16522191990576
