24
         -46.479636975469          0.000920537297
C          -1.24637157369700   -0.29615000386411   -0.01143368119864
C          -0.43059034035700    0.80036997888613   -0.01010888377208
C           0.87983276260854    0.27555328641931    0.00172900368617
N           0.86518331383151   -1.03450331342824    0.00721934652665
N          -0.42572754213813   -1.38543153541262   -0.00082731613664
C          -0.80975980158727   -2.69405996816536    0.00436635889259
S           0.35205827211748   -3.99112855053782    0.02218866783451
C          -1.08524144456318   -5.04692995872609    0.02042128113882
N          -2.19771235196206   -4.37764610397230    0.00741448104155
N          -2.05221797771462   -3.07696507805520   -0.00151564169873
N          -0.85920717300798   -6.36931149518137    0.03759819080223
N          -1.89314608668097   -7.14013798830754    0.03498073540418
C          -1.66750100107301   -8.45914777969834    0.05830085271576
C          -0.52450388387361   -9.27482584625173    0.08672266984576
C          -0.96345394078744  -10.59180041856572    0.10297721077695
C          -2.34967908073410  -10.57043558993801    0.08470314402519
N          -2.75967961018939   -9.29292735336257    0.05783335161730
H          -3.70866385011239   -8.95571770553110    0.04031860541479
H          -2.30941326798423   -0.41537401996120   -0.01864559205410
H          -0.71649106923598    1.83159397418807   -0.01640304802480
H           1.81099725173227    0.80580315217158    0.00639737145093
H           0.48481925265678   -8.91631322262464    0.09365727029888
H          -0.35137981911472  -11.47176943886721    0.12564738412991
H          -3.04156103813351  -11.39028502121390    0.08977823728280
