24
         -50.638463391223          0.000701749393
C          -1.24738897295521   -0.28724292995276   -0.00199163923313
C          -0.43090161266494    0.80787726973950   -0.00269520940237
C           0.88014577197510    0.28184784008198    0.00470276354286
N           0.86489320418555   -1.02760153202511    0.00962784740932
N          -0.42683735667584   -1.37787377802544    0.00549411683079
C          -0.81141158071823   -2.68456262687706    0.01115683391663
S           0.34553193587201   -3.98421742509695    0.02353246367074
C          -1.09551688622533   -5.03530958669495    0.02634951124786
N          -2.20543338912075   -4.36200001573474    0.01809356893062
N          -2.05669770724539   -3.06515873385317    0.00968670272248
N          -0.87504047265025   -6.35889797528826    0.04148742325944
N          -1.90616655031505   -7.12732410394328    0.04238501987278
C          -1.67226015929518   -8.44665596245277    0.06350328579012
C          -0.52944792881517   -9.26317073178245    0.08677717990925
C          -0.95294407962557  -10.58561314803300    0.10375333763658
C          -2.33916390084324  -10.58789755052256    0.09119318591950
N          -2.73512096871978   -9.31083838449232    0.06723714387860
F          -4.03990603767983   -8.93339461074004    0.04966814518784
H          -2.31051383575078   -0.40594836785543   -0.00589391073240
H          -0.71556963237869    1.83935854486393   -0.00758918332442
H           1.81134813753187    0.81194294517993    0.00670228417638
H           0.47565296303037   -8.89277049244446    0.08997162666092
H          -0.33146573989373  -11.45864602076462    0.12325225483915
H          -3.03974520102197  -11.39868262328596    0.09791524729047
