25
         -51.018700899676          0.000945796833
C           0.90104557018286   -0.80179717922027   -0.00435629435885
N           0.75597182705826    0.53671858731246   -0.01244868618091
C          -0.53385434646215    0.76338731054872   -0.01290680108731
N          -1.24711565633928   -0.37912824046716   -0.00537860466963
H          -2.24661554567432   -0.50623606726887   -0.00378344306972
C          -0.34185688739699   -1.41177085116098    0.00027975284305
C          -0.74842891385821   -2.77258814681247    0.01009675041923
S           0.35942979493351   -4.11732398844312    0.01691269523220
C          -1.10946483370246   -5.12870558682962    0.02789171941959
N          -2.19769541598828   -4.41851150540060    0.02582912797849
N          -2.00806179342716   -3.13304133677310    0.01616213449782
N          -0.92227670726251   -6.45400483632764    0.04195072781557
N          -1.96976949922698   -7.20198137386004    0.04452077013907
C          -1.74830236051441   -8.52548162788130    0.06378606880874
C          -0.61394284034273   -9.33431391219791    0.08182922724315
C          -1.04314093563535  -10.66564561211272    0.09743477289038
C          -2.41690177689186  -10.66587456788477    0.08920071605647
N          -2.85316572261697   -9.37287584683387    0.06868188367805
C          -4.12640063948259   -8.99389576906784    0.05658237375221
N          -5.23441056206060   -8.71286704630545    0.04542223966752
H           1.86835933678469   -1.26235012156519   -0.00207765721118
H          -0.97726801636714    1.73895378880903   -0.01847449515624
H           0.39415510773759   -8.97145386480953    0.08279214852816
H          -0.41740473473909  -11.53605074577512    0.11311358107947
H          -3.11194444870785  -11.48321145967261    0.09646929168466
