24
         -46.841614588789          0.000391291220
C          -1.27408942803475   -0.24863337293514   -0.00964067811160
C          -0.38844527564885    0.84577932408548   -0.00736320749776
C           0.86885463767961    0.31357339733345    0.00408477054432
O           0.82286403654811   -1.02301500591707    0.00897762630510
C          -0.48135797812376   -1.37548889164903    0.00074044168835
C          -0.84928239146478   -2.75155519182713    0.00538832899033
S           0.32049417906925   -4.05251945693327    0.02248194137079
C          -1.09754154235322   -5.12159144607916    0.02035806750938
N          -2.21864924639196   -4.46046108833108    0.00763527110911
N          -2.08697205503244   -3.16494745384505   -0.00057189860385
N          -0.86391849346827   -6.44245683134488    0.03617753214050
N          -1.89916561336312   -7.21200285232325    0.03404745906115
C          -1.67898473063041   -8.53188108921164    0.05530141744555
C          -0.54178064887509   -9.35474463831797    0.08103025126563
C          -0.98962444621372  -10.66943259436962    0.09606187852096
C          -2.37514747233460  -10.63904426647213    0.07971939370378
N          -2.77636881797105   -9.35813770349288    0.05517569720137
H          -3.72346357887335   -9.01565588953926    0.03945135831684
H          -2.34351159692162   -0.23743513564511   -0.01756190247120
H          -0.64636048403170    1.88471831337224   -0.01322057015850
H           1.83893619769057    0.77035520915663    0.00959949864442
H           0.47051995077066   -9.00455080369149    0.08717395235682
H          -0.38262110653981  -11.55303284397779    0.11669984632245
H          -3.07355409548568  -11.45342968804492    0.08454352434604
