24
         -51.000636410090          0.000330240207
C          -1.27826333063427   -0.25192296072583   -0.00339204097166
C          -0.39462645229845    0.84334280201412   -0.00547620576580
C           0.86399698190992    0.31277892982814    0.00026184946007
O           0.82060635248385   -1.02335283012777    0.00569124022290
C          -0.48325383970637   -1.37808504591555    0.00357764027915
C          -0.85115872279251   -2.75308958570670    0.01017726054803
S           0.31295921810676   -4.05660770789486    0.02045159384289
C          -1.10998650794294   -5.12106107052693    0.02512335682984
N          -2.22795312749413   -4.45492095142037    0.01940008954061
N          -2.09215841934350   -3.16313160745248    0.01125715579846
N          -0.88076927434876   -6.44241673670563    0.04160664218914
N          -1.91113894121803   -7.21276248138215    0.03680308003146
C          -1.67688897724975   -8.53200845835994    0.06153612487784
C          -0.53551935557006   -9.34929885439952    0.09245500691807
C          -0.96053401096284  -10.67193106428538    0.10813342274802
C          -2.34606903038194  -10.67297927893998    0.08749309107651
N          -2.74039256058132   -9.39488348501031    0.05975370887366
F          -4.04555055226292   -9.01736360889125    0.03449490881488
H          -2.34776130105713   -0.24294072616098   -0.00640534913993
H          -0.65404450888086    1.88184276540222   -0.01039358336247
H           1.83316658228627    0.77160907374827    0.00121784226482
H           0.47035939834096   -8.98097693547999    0.10101893295729
H          -0.33952144709967  -11.54524906900723    0.13198480639281
H          -3.04859817330232  -11.48207111259987    0.09096942557341
