26
         -49.889414195251          0.000511383258
C          -1.26342085154090   -0.38816222237957   -0.37305441957009
C          -0.51643790895283    0.73943582524585   -0.17217917277082
C           0.71525867160856    0.27126007329494    0.33262484068590
N           0.71996002846641   -1.03593316175120    0.43131817384219
N          -0.48111849262741   -1.43842464274914    0.00347227519067
C          -0.82258049476020   -2.75923098267689   -0.02772752059954
S           0.26969186218348   -4.00214970399049    0.53431001030234
C          -1.04935469696619   -5.11234462427589    0.10181299532369
N          -2.08509841612153   -4.50123154919026   -0.39874735847851
N          -1.95821565682433   -3.19750643195132   -0.47286227633994
N          -0.81535505974882   -6.42684575847808    0.16101086356326
N          -1.82115322993927   -7.22048835098701    0.23701387881731
C          -1.62970114824290   -8.53178129771010    0.10107807045607
C          -0.55115482244633   -9.39393372412015   -0.17730308574688
C          -1.06186962475565  -10.67610218690228   -0.22588411802974
C          -2.43245469221694  -10.60040439421973    0.02521819887585
N          -2.75904063129407   -9.32120460239807    0.21916966103871
N          -3.99940496816460   -8.81638463820914    0.55745473601009
H          -2.25549319543462   -0.55074560014771   -0.73912689469283
H          -0.79948612402620    1.75499662993587   -0.35568752805311
H           1.57863047576279    0.83815028885456    0.61829659008319
H           0.46396047797835   -9.07994959853034   -0.31189255970387
H          -0.51810280138304  -11.57944553591164   -0.41865599629273
H          -3.16569679044431  -11.38203588923798    0.06347080995656
H          -4.70509758653315   -9.05870032784683   -0.13408583322255
H          -3.89788432357664   -7.80279759366732    0.62295565935326
