26
         -50.287147456150          0.000768276841
N           1.45835141422634    0.05967901193758    0.14623709490907
C           2.80395357111344    0.07756831349789    0.08058257806751
S           3.72683419130186    1.57257505753055    0.11358084639767
C           5.15672266918450    0.49595671424066    0.07828809423681
N           4.82926639415321   -0.75446168708838    0.04560776778490
N           3.53873518760215   -0.99490913975036    0.04373601621940
N           6.35749419272187    1.09072610420430    0.07584207929516
N           7.38289408076272    0.30672991758788    0.06831333834888
C           8.59022256324749    0.88033637177568    0.05382576587188
C           9.03432889912522    2.20956476550613    0.04558303888381
C          10.42350870405280    2.18333765568890    0.03077221465929
C          10.81535747087249    0.85792157598018    0.02972144615269
N           9.71648297452285    0.06899896002610    0.04374500224116
C           9.72789436529775   -1.31318543719207    0.04580886366233
C           8.71914000144086   -2.23651543345737    0.04877982247883
C           9.36402249717052   -3.49708996413342    0.04940998095582
C          10.69995230606545   -3.24755659563675    0.04533576387345
O          10.93570061924349   -1.91935438096954    0.04373755817707
H           0.95247340425415    0.90212776065877   -0.06167602500660
H           1.01113896004018   -0.82196827864331   -0.04095968628405
H           8.38962624144228    3.06514604361749    0.05093353000713
H          11.08259931096841    3.02898638998105    0.02149324371491
H          11.79975268655229    0.43297223405345    0.01957314454799
H           7.66983662021209   -2.02991369392874    0.05091801464707
H           8.88875734460940   -4.45588035992809    0.05171738059571
H          11.55681332981626   -3.89072190555858    0.04393312556214
