27
         -49.190223514471          0.000681383509
C          -1.07205527536458   -0.40559012697972    0.50555072328201
C          -0.42812119790736    0.81728660109327    0.25890095750729
C           0.72871828379993    0.67003709099128   -0.44456957355448
S           1.06058806899866   -0.96966238457783   -0.82208513202132
C          -0.39072981593681   -1.47878547207413   -0.01757352238221
C          -0.77502799358738   -2.84636720234845    0.05833602991042
S           0.16914972856519   -4.16396022460700   -0.63810007623225
C          -1.12938819054703   -5.21023179982310   -0.03680106704385
N          -2.05832767859664   -4.54438887303718    0.59856689471079
N          -1.85569934107729   -3.25771056579644    0.65132444724639
N          -0.95399853480446   -6.52765884037792   -0.07758311622139
N          -1.95047362461178   -7.32164762856096   -0.16255891636266
C          -1.74415259386474   -8.62865054475564    0.03828784960380
C          -0.64165730632379   -9.40518299380950    0.43272118873107
C          -1.07226021825234  -10.72128971860070    0.48724258346894
C          -2.41437371420509  -10.73181205962636    0.13257322178003
N          -2.81329601011466   -9.48039434366528   -0.13464288431726
C          -4.12982352341902   -9.06415707261782   -0.52838144844271
H          -1.99510656332484   -0.52124935621585    1.04212340193912
H          -0.80459454340881    1.76882202353677    0.58887205779794
H           1.41162778912981    1.43077423397086   -0.76705558299207
H           0.33627408773401   -9.02156641030553    0.64347448370973
H          -0.48815015842572  -11.57985274641855    0.75367481264244
H          -3.09038047719540  -11.56250583827384    0.06150780952051
H          -4.40449078895158   -9.51328305861214   -1.48446041740068
H          -4.12299276500156   -7.98003124675915   -0.62367835030668
H          -4.86360764330736   -9.35816144174878    0.22356362542720
