31
         -59.334809326010          0.000604916150
C          -1.30357985088418   -0.43307018124086    0.12248992824782
C          -0.60510999856091    0.78333673680438    0.16921952039667
C           0.74464240696306    0.61238380559378    0.24556505943092
S           1.19562869298239   -1.04000342231501    0.26212471409499
C          -0.46874246527322   -1.52501172182393    0.16394887406759
C          -0.84916953673508   -2.89557175816005    0.13327024491952
S           0.30544910306325   -4.21493498478495    0.18458140264835
C          -1.11580457527253   -5.26580861719075    0.09611604237205
N          -2.23372865020701   -4.59517779632545    0.04331829187335
N          -2.08790165626680   -3.29990297473661    0.06381941156247
N          -0.89847114618658   -6.58636265098130    0.10821646312326
N          -1.94133004278599   -7.34532532569593    0.00759416195547
C          -1.73654085290644   -8.66490103364766    0.03205696381285
C          -0.58058904484085   -9.45561946529705    0.14630903782681
C          -0.98489559474189  -10.77967960483564    0.10550430298339
C          -2.36524583071565  -10.79231717297530   -0.03026027694359
N          -2.82208990094431   -9.52482019721488   -0.07506123854718
C          -4.14747043350399   -9.14738271820629   -0.20283137868326
C          -5.30166667487690   -9.89162034508426   -0.32128627853922
N          -6.36357750161133   -9.05989989434285   -0.41874488945760
C          -5.88312455954042   -7.84622764281053   -0.36269779706857
N          -4.53849334396936   -7.83849304903940   -0.23100857825632
H          -3.87320861612535   -7.07150328399820   -0.16158522134532
H          -2.37127774748920   -0.53025415666215    0.06082250487921
H          -1.07982092261581    1.74758642720513    0.14740606780119
H           1.50683350562340    1.36477208374218    0.29347705679538
H           0.41251350173561   -9.06610896592571    0.24356943905262
H          -0.35674791852989  -11.64615414596569    0.16655285442405
H          -3.03284133819578  -11.62813867312054   -0.09582023430165
H          -5.42997404582412  -10.95427459156943   -0.34220963336434
H          -6.47395496176481   -6.95494467939517   -0.41359681576158
