27
         -49.654489865486          0.000406311165
C          -1.16026793526951   -0.35664228857542    0.45563985872890
C          -0.40914494760663    0.75067001918030    0.17305962076001
C           0.75048638676655    0.24918686101771   -0.45418466677795
N           0.71073637517676   -1.05815459055997   -0.54727072367671
N          -0.44921649065599   -1.42782894707256    0.00456630645503
C          -0.82224038118436   -2.73839226718526    0.07969714679860
S           0.17543031713457   -4.01644889701442   -0.57692999024501
C          -1.13103911070796   -5.08674600127219   -0.01246036942118
N          -2.09433615132678   -4.44110847614851    0.58207854801994
N          -1.91934247183051   -3.14228990524435    0.63692498981852
N          -0.93023985371926   -6.40371021402561   -0.05147949179561
N          -1.92220519811862   -7.20491109387982   -0.14035856851898
C          -1.70180651685457   -8.51202462502054    0.03862000567958
C          -0.58101538663365   -9.28649148755743    0.38529700290340
C          -0.99859960616634  -10.60661834582306    0.42723099445673
C          -2.35157375677796  -10.62209598905659    0.11369774544420
N          -2.76864469512377   -9.37018735566748   -0.11789543461290
C          -4.09986280969460   -8.95807892140757   -0.46432013177695
H          -2.11239466796467   -0.49326689931368    0.92383845716906
H          -0.64504652375840    1.77356102202121    0.38112764565822
H           1.59384729829470    0.79231993849186   -0.83093859921307
H           0.39954681045704   -8.89737062755291    0.57197627723153
H          -0.39967905586482  -11.46520944847113    0.65825700703341
H          -3.02259691740448  -11.45737704944396    0.04902661014042
H          -4.38887521910676   -9.36889760253143   -1.43332740265592
H          -4.11069018831270   -7.87094922409851   -0.51295813452048
H          -4.81193930374645   -9.29667758379023    0.28960529691788
