24
         -46.015301715021          0.000790744350
H           1.15245134634935   -0.57322036921162   -0.11647178264096
C           2.17933020553803   -0.28596600645318   -0.01699221583032
S           2.80424482047038    1.15916114193058   -0.75302431158888
C           4.35432354794304    0.65154290255439   -0.05601031305259
N           4.25580194351888   -0.45195845819226    0.63034076207342
N           3.04564598850033   -0.96199075778397    0.64673386783847
N           5.39242276190315    1.49129977598993   -0.11845923755615
N           6.57660679187217    1.00759797314999   -0.08009146384830
C           7.60589767112123    1.84832019874903    0.04186537836319
C           7.71078388791014    3.24469503956303    0.12770563868172
C           9.06166428957583    3.55489691876992    0.18741040518202
C           9.76314678688148    2.36251584520209    0.14767892868648
N           8.89676324969046    1.33180050247469    0.06080649689713
C           9.24177481446152   -0.00806053165533    0.02352296626973
C           8.45175638562731   -1.10075796819297    0.23632371748307
C           9.16785506959795   -2.31028488084807    0.11430205018348
C          10.47891755353820   -2.12793749402819   -0.18176982193237
S          10.88706349553125   -0.46484395184340   -0.32831848037365
H           6.87735543116711    3.91797250060434    0.13085282747065
H           9.49559616611879    4.53270766443896    0.25527208919223
H          10.82282726473123    2.19619629763621    0.18051363435963
H           7.40500396255273   -1.03534711007767    0.46675127280162
H           8.71779629632859   -3.27699880990441    0.24765141061614
H          11.24371026907182   -2.86497042287163   -0.32326381927661
