31
         -59.672801360898          0.000980868647
C          -1.31085071883716   -0.29918440915634    0.11014287898389
C          -0.42128400836672    0.78851447578430    0.20284009377487
C           0.82658601275074    0.24697565015819    0.31929364081499
O           0.77098415574216   -1.08893342518919    0.30646794325113
C          -0.52987069334573   -1.43195325182840    0.17882738427317
C          -0.89301291293008   -2.80874311234119    0.13613258163410
S           0.28787792132539   -4.09669791989282    0.24570326647900
C          -1.10664017944641   -5.17972608509412    0.10463625150558
N          -2.23386136726041   -4.53455266322981   -0.00337859350799
N          -2.11885963176113   -3.23615311631145    0.01357938691533
N          -0.85984933604183   -6.49822674774381    0.12191751520795
N          -1.89162377672796   -7.26949744620951    0.02346013893040
C          -1.66954887955589   -8.58479216642461    0.03787430764157
C          -0.50132337314526   -9.35572948856850    0.14372524825000
C          -0.87977579470092  -10.68954754131485    0.10423439673947
C          -2.25691271028601  -10.72514197391329   -0.02388146210352
N          -2.74138461608953   -9.46495110982225   -0.06472321088764
C          -4.07824766499577   -9.12918375812139   -0.18856302714980
C          -4.65257167134456   -7.89180181971265   -0.24212182961436
C          -6.05614287697110   -7.95866588914388   -0.37243192287724
C          -6.53070921822646   -9.22866619106380   -0.41637891152031
S          -5.27351493633002  -10.39512335138100   -0.29939096107782
H          -2.37521315150161   -0.27685786863677    0.00777678682489
H          -0.67076490661460    1.82941927383965    0.18529323013114
H           1.79577114687707    0.69562060126859    0.41530227824852
H           0.48576304850713   -8.94997560662822    0.23696763796225
H          -0.23537091660858  -11.54431623695536    0.16140950696756
H          -2.91028156097580  -11.57401182495302   -0.08747335390945
H          -4.08709333488015   -6.98002625117216   -0.18953435511955
H          -6.68428147586042   -7.08853737079504   -0.43098395078147
H          -7.54365257239850   -9.56559337544714   -0.51053289598670
