26
         -49.460121420512          0.000864484704
N           1.56731975149749    0.03329319188791    0.05401790069493
C           2.91231291630534    0.06334116549111   -0.01171097581374
S           3.82034934421348    1.56762075856677    0.01465118319952
C           5.26038722811960    0.50487592222959   -0.01760930881626
N           4.94558709543670   -0.74900176394866   -0.04514354155002
N           3.65735374547729   -1.00218653136652   -0.04473012670670
N           6.45524444126410    1.11088583370969   -0.02093028256689
N           7.48751990587788    0.33592315744054   -0.03091462951799
C           8.68904824429862    0.92132402037301   -0.04360757119498
C           9.09917622135168    2.26137972204832   -0.04622491906915
C          10.48792331215657    2.27096249019820   -0.06084256102505
C          10.90995635841664    0.95539238034176   -0.06740173854844
N           9.83519386417604    0.13437393289012   -0.05691338770484
C           9.88868168521069   -1.24789855669597   -0.06087818472604
C           8.86255050452120   -2.14787110643315   -0.05858899990448
C           9.32030936704559   -3.48289126961261   -0.06470838512583
C          10.67245594805692   -3.58593917247108   -0.07168860937752
S          11.43965698153242   -2.04713553803669   -0.07084198883393
H           1.05229457833429    0.87062228556425   -0.15228814668324
H           1.12735984967140   -0.85361073387256   -0.12567512442233
H           8.43058741011917    3.09842613012702   -0.03745235473669
H          11.12647709075216    3.13210612291797   -0.06632069118448
H          11.90821672705927    0.56176837835905   -0.07908600677193
H           7.82886903515218   -1.85618895375704   -0.05258476737999
H           8.66008434617617   -4.33091248045757   -0.06398351803363
H          11.28045404777742   -4.46835938549356   -0.07743326420026
