21
         -44.586635923358          0.000632902534
C           1.38642976242790   -0.37181802249203   -0.36183905257039
O           2.71601246803975   -0.23344160278327    0.12074608155709
C           3.12894105335231   -1.18994248095902    0.92758898375339
S           4.77058490853500   -1.14465475400891    1.54715247238121
C           4.32067645769093   -2.67504178360213    2.35351138356738
N           3.09365884692564   -3.02069102488788    2.12359172383856
N           2.43022435541176   -2.19504577495891    1.34089265651555
N           5.17814749198976   -3.18721759434358    3.23978931124684
N           5.18450243217474   -4.44042771899633    3.47403005359749
C           5.92871408074945   -4.87598448539143    4.50385731248149
C           6.67493928051679   -4.27791344753994    5.52982429518750
C           7.19173346971578   -5.29338076915297    6.32609896467982
C           6.77075478217850   -6.50285671436267    5.79839234849476
N           6.02284728651155   -6.22407652087273    4.72491850689051
F           5.45013847141854   -7.17710508743050    3.94361774876205
H           1.20435295826910    0.50327246995598   -0.98101784174467
H           0.68157830185565   -0.41042557630989    0.47064760100860
H           1.28788019525856   -1.28649993469253   -0.94957529367950
H           6.80191010511976   -3.22106864440721    5.65056594320709
H           7.80650182546696   -5.17560551580275    7.19604754646226
H           6.95222146639152   -7.51014501696143    6.11540925436297
