25
         -50.998480436863          0.000562980016
C          -1.24278440797867   -0.29570311876747    0.00062274227233
C          -0.41667975723049    0.79165056904917   -0.00341904457966
C           0.89032347939670    0.25385216693519   -0.00153641120122
N           0.86364503635982   -1.05503577217665    0.00325932503115
N          -0.43147019174514   -1.39404668353164    0.00457272369694
C          -0.82657694736493   -2.69647008059585    0.01144942462448
S           0.31796158656756   -4.00551331685090    0.01774683272948
C          -1.13284816343352   -5.04411750266681    0.02633045665794
N          -2.23689403484582   -4.36007463647940    0.02367177312561
N          -2.07652750295678   -3.06649304296099    0.01553059127662
N          -0.92310502625908   -6.36794778698189    0.03981462711893
N          -1.95758660857588   -7.13279621180238    0.04311559324135
C          -1.71811518086781   -8.45305202005778    0.06279138930278
C          -0.57344397934500   -9.24817924903849    0.08192664160745
C          -0.98589173139057  -10.58424348076568    0.09907153521324
C          -2.36011022176363  -10.60132050960121    0.09059036343623
N          -2.81208722497829   -9.31467424217507    0.06845830219417
C          -4.08993888311494   -8.95101288274415    0.05520605654989
N          -5.20203932964320   -8.68629544772671    0.04449178194921
H          -2.30690943599243   -0.40534762091856    0.00117622182935
H          -0.69183486139230    1.82566251704395   -0.00704378406555
H           1.82605013420768    0.77589801372324   -0.00338065950266
H           0.42974214201657   -8.87200415550273    0.08262943667252
H          -0.34982002252251  -11.44710875939428    0.11599266207595
H          -3.04467886714734  -11.42747674601293    0.09874141874347
