31
         -59.798976999389          0.000494763495
C          -1.38217797921018   -0.41142895307996    0.11088408805955
C          -0.58168066664650    0.69509998818020    0.15941671672881
C           0.73432137817248    0.18714758223456    0.22512507679463
N           0.73632878396253   -1.12267440611068    0.21753649368993
N          -0.54848053284233   -1.49011600242777    0.14798185183993
C          -0.90526873154701   -2.80505722954435    0.12060116918500
S           0.29275672846143   -4.06964627625803    0.17068889315036
C          -1.10539194109406   -5.16040497400481    0.09003996326979
N          -2.24228480007620   -4.52776330754999    0.03997537681408
N          -2.13451918346003   -3.22146815565715    0.05702187786023
N          -0.85729532224654   -6.47801654692978    0.10594559909697
N          -1.88759712157778   -7.25313837176004    0.00606296198301
C          -1.67203480796818   -8.56934711942733    0.03453113473317
C          -0.51153861358587   -9.35419977440097    0.15265231305436
C          -0.90880879316296  -10.67980980285382    0.11420786296145
C          -2.28961747879178  -10.70000089337297   -0.02385096099297
N          -2.75322062784794   -9.43599692907845   -0.07240663668797
C          -4.08057686598570   -9.06621834921768   -0.20275643986280
C          -5.22986146126904   -9.81859251118060   -0.32118252154998
N          -6.29698748957121   -8.99451439585319   -0.42200445813252
C          -5.82489264527148   -7.77740070626028   -0.36777232562994
N          -4.48066326145211   -7.75996882936003   -0.23431092569513
H          -3.82232945618359   -6.98704817692234   -0.16545067217030
H          -2.44227745364828   -0.54325247980053    0.05468974982486
H          -0.88025247622605    1.72256286455642    0.14997976421718
H           1.65723490645363    0.72906255066037    0.27672474069554
H           0.47921979379353   -8.95902516632104    0.25059891521070
H          -0.27678243547777  -11.54321491819046    0.17820747796213
H          -2.95204452953183  -11.54006491761269   -0.08839175329871
H          -5.35112650749874  -10.88213878631746   -0.33996695677243
H          -6.42189040867021   -6.89034500614105   -0.42142837633841
