27
         -49.674108632293          0.000863510921
C           0.71721826538779   -0.81008839216732   -0.57359408884889
N           0.60468018444604    0.52228231416990   -0.39447914599648
C          -0.53104030106166    0.71045492108019    0.22645209841745
N          -1.17486423232110   -0.45053505782954    0.46359569883371
H          -2.05853771773800   -0.60751693544162    0.92061406695351
C          -0.38622628061630   -1.45266383587193   -0.04522902272580
C          -0.76574316083997   -2.82150823303575    0.03099791388486
S           0.20503846274367   -4.13172363333348   -0.61921841089228
C          -1.11149222411337   -5.18210842324827   -0.04625636717868
N          -2.06286347827031   -4.51692845214096    0.54828327019004
N          -1.86663087251779   -3.22449881065001    0.59373845718507
N          -0.92794328663779   -6.50037305609981   -0.07359041878984
N          -1.92786065465391   -7.29184196727247   -0.15816310423524
C          -1.72571796426770   -8.59837302060036    0.04664633160243
C          -0.62243759652348   -9.37874135543627    0.43252935696515
C          -1.05839629212212  -10.69233060378420    0.49639082514386
C          -2.40456981952031  -10.69777387611042    0.15617550037513
N          -2.80048762818897   -9.44599693137726   -0.11184833430456
C          -4.11848811018928   -9.02489707058832   -0.49585696056615
H           1.56699947731499   -1.24118073994715   -1.06326633358002
H          -0.91321167153535    1.66855156413803    0.51685266007759
H           0.35937382016306   -8.99852671884957    0.63082617374538
H          -0.47565379350895  -11.55277927985830    0.75948631296056
H          -3.08485928773415  -11.52585555796775    0.09664900475023
H          -4.39022141333828   -9.45016352146085   -1.46371208581934
H          -4.11467710807847   -7.93931969236660   -0.56495340939165
H          -4.85161731627931   -9.34101363395087    0.24703001124569
