31
         -60.137861078913          0.000509392631
C          -1.29303797699147   -0.35264714005043    0.11185251948730
C          -0.48540734786671    0.74845446210590    0.17158749476650
C           0.82483188175578    0.23068966774066    0.26210773500520
N           0.81721616406888   -1.07951006374480    0.25766646261190
N          -0.46837592216425   -1.43703624148880    0.16646293108810
C          -0.84214863421699   -2.74815078758303    0.13526054863123
S           0.32939623739422   -4.03670514910085    0.19405976447480
C          -1.09202468688134   -5.10177013694190    0.09922216275641
N          -2.21159827185774   -4.44413971354933    0.04114154004279
N          -2.07866473629045   -3.14137548643048    0.06069781291962
N          -0.86458805614595   -6.42474829875712    0.11493236411650
N          -1.90541216029437   -7.18144503525794    0.00467425348700
C          -1.70567439029139   -8.49965276697361    0.02979218340229
C          -0.56105115233598   -9.30533518634460    0.14221187027141
C          -0.97868507789161  -10.62738938827894    0.09579040870991
C          -2.35640957097459  -10.62530534992839   -0.04060539936623
N          -2.79839685631309   -9.34976032606510   -0.08133234632747
C          -4.12124401586859   -8.96748601066652   -0.20570357380660
C          -4.71842144760756   -7.73781385699010   -0.25070536418788
C          -6.10335473814357   -7.99884953889527   -0.38579292664484
C          -6.24108352067719   -9.35094433940881   -0.41199759641906
O          -5.03965236423701   -9.95351013457592   -0.30280612322017
H          -2.35276838865805   -0.47807499628410    0.03695550795246
H          -0.77669302767088    1.77802219146385    0.15380571980739
H           1.75101630867893    0.76540120537632    0.32907980345652
H           0.43691069449582   -8.92869736372262    0.24102960253079
H          -0.35954638174896  -11.50079628744994    0.15366789834731
H          -3.03903132993575  -11.44939377221741   -0.11004663664844
H          -4.22603026512814   -6.78999397633181   -0.19394844526646
H          -6.88553452735085   -7.27164165528565   -0.45329403063626
H          -7.09662643885091   -9.98975452436351   -0.49964614134209
