31
         -59.310813578516          0.000914803834
C          -1.30986245390854   -0.39458407685066    0.10117693191206
C          -0.51433711873919    0.71457282275003    0.17256251218478
C           0.79935103592961    0.21034561215910    0.28385968954760
N           0.80509657723399   -1.09980475441308    0.28113058701890
N          -0.47529938181876   -1.47076781867872    0.16888245212593
C          -0.83438995649952   -2.78614643547560    0.13366711762333
S           0.35039769968377   -4.06027495302234    0.22659008036319
C          -1.05611375930358   -5.14211387045651    0.10554925985923
N          -2.18150843050089   -4.49816501149295    0.01603470610184
N          -2.06397373352945   -3.19383951811389    0.03097637584891
N          -0.81404379016299   -6.46277035085634    0.12462033886185
N          -1.84869267129165   -7.22910972859630    0.02168986986281
C          -1.63879066122415   -8.54535630213659    0.04185080527678
C          -0.47749738590870   -9.32715370235616    0.15247973922182
C          -0.86761209288773  -10.65689804352700    0.11143695589837
C          -2.24512117551075  -10.68027689485946   -0.02170562638968
N          -2.71886629823702   -9.41673477529164   -0.06462043154709
C          -4.05212450169399   -9.06792893376978   -0.19054615132968
C          -4.61515523045997   -7.82498267039945   -0.23629216446225
C          -6.01858626477717   -7.87770212639266   -0.37152510155537
C          -6.50489764156050   -9.14275987306215   -0.42547136090236
S          -5.25944234076858  -10.32178357434588   -0.31361952709148
H          -2.36704209643656   -0.52955055662546    0.00980625423743
H          -0.81569825214655    1.74112200489802    0.14948910444249
H           1.71877550912875    0.75475628338258    0.36433973607349
H           0.51184272673561   -8.92794225604146    0.24858254255455
H          -0.23197592691327  -11.51811190459713    0.17058181236095
H          -2.90533643481055  -11.52380529230655   -0.08721956566597
H          -4.04147500619845   -6.91903766272326   -0.17558685671854
H          -6.63802242196324   -7.00117668519479   -0.42476216423166
H          -7.52070852145975   -9.46957895160426   -0.52396792148233
