31
         -58.847268513625          0.000692906557
C          -1.12916280327349   -0.43325631237188   -0.22106062908414
C          -0.51663320248111    0.79506497430436    0.07277107899403
C           0.64627664279899    0.65007959709196    0.76788938147045
S           1.02177049967842   -0.99327861358614    1.08038555675135
C          -0.41856152844254   -1.50808885930408    0.25916178254109
C          -0.76904410539967   -2.88130533319997    0.13565588205511
S           0.17851412344412   -4.19421582777897    0.82592660597240
C          -1.07918536896643   -5.25024835036618    0.16186756015072
N          -2.00142272361806   -4.58810922149173   -0.48440202285011
N          -1.82711453581131   -3.29686474072785   -0.49906066438239
N          -0.89256811594644   -6.56979404622317    0.22074599143285
N          -1.91530681410294   -7.33866782257333    0.12670114993658
C          -1.70297036207166   -8.65265620505158    0.01630142853190
C          -0.54318976782835   -9.44093980922467   -0.00452788158853
C          -0.94509725349391  -10.76667129404408   -0.08974166002174
C          -2.32756562012979  -10.77856507382166   -0.12942133654132
N          -2.79253727493671   -9.51196427434804   -0.06619892098431
C          -4.12656540692179   -9.14592852937390   -0.10186106061930
C          -4.67071235960698   -7.90628633200749   -0.27674729080352
C          -6.08143413247320   -7.93368532207313   -0.25828216694737
C          -6.59027478313244   -9.17773603562269   -0.07599395981625
S          -5.35845575947627  -10.36587223342031    0.08486838111472
H          -2.05118137023469   -0.55140492444991   -0.75931558418417
H          -0.91951657765536    1.74876040082043   -0.21751173357933
H           1.31007501012575    1.41556076591895    1.11820991782102
H           0.45457260278769   -9.05451764195354    0.05123399194293
H          -0.31175118920377  -11.63095679904045   -0.12171601834683
H          -2.99837068209937  -11.61301347589298   -0.20233457111926
H          -4.08050792794594   -7.01896739205536   -0.40964807215177
H          -6.68909595858676   -7.05579609272471   -0.38100267186534
H          -7.61606325499231   -9.48381517540842   -0.02722246382691
