21
         -40.427452577755          0.000691334034
C           1.66181085092146   -0.50570001418737    0.37474342276686
O           2.88779688238280   -0.09775904184358   -0.21467446071692
C           3.29877989680922   -0.83460457950238   -1.22991757646289
S           4.82217576135281   -0.44478178770893   -2.01294301424501
C           4.45478579727709   -1.86115849989246   -3.03883540664744
N           3.32466948262205   -2.41916958679343   -2.73830067134864
N           2.67945111636622   -1.84468803098421   -1.73967779602760
N           5.23152768794395   -2.08073058739281   -4.10200805981615
N           5.36513769082469   -3.26298232848797   -4.56732020922733
C           5.99337529987671   -3.40648218808987   -5.74447090051337
C           6.52422598332407   -2.53424436845413   -6.70495576161442
C           7.03259144243695   -3.31939424753355   -7.73297621564892
C           6.80886768385281   -4.64396511831534   -7.39595389872912
N           6.18817021674691   -4.68518781349543   -6.20601678967494
H           5.88941676552874   -5.50504104931404   -5.70326437426067
H           1.46755268920019    0.20408932881864    1.17527293776495
H           1.74801751320359   -1.51921297320335    0.77103037510757
H           0.85878946453391   -0.48392520844187   -0.36420544282383
H           6.52603451679189   -1.46543582986337   -6.63351588976262
H           7.51114279385193   -2.97199733992732   -8.62712065462126
H           7.05787046415134   -5.53572873538680   -7.93773961349805
