31
         -59.330438113831          0.000993125676
C           0.80279120134209   -0.85520706025552    0.29152200238898
N           0.62947692237845    0.48142093299215    0.28444156424119
C          -0.65888033459822    0.68010070198497    0.16969882241488
N          -1.34444974083193   -0.47855135753893    0.10377128904441
H          -2.33670467475357   -0.62764562451301    0.01519599952305
C          -0.42018737147497   -1.49129730787407    0.18084004345326
C          -0.79287468510429   -2.86326761217645    0.14149753788901
S           0.35693719743360   -4.17489570407768    0.23643529654150
C          -1.06856341880943   -5.23088870024326    0.10503202046998
N          -2.17825985044874   -4.56001692437613    0.01096715895804
N          -2.03115554598472   -3.26213208140249    0.03086660887836
N          -0.84575393913269   -6.55271845434752    0.11946010711423
N          -1.88795343953970   -7.30957245280865    0.01968911389442
C          -1.68010101528618   -8.62742842383596    0.03406933251147
C          -0.51724946759598   -9.40684347200070    0.13859667628694
C          -0.90482445964782  -10.73779667567385    0.09690244613553
C          -2.28216061515723  -10.76335645552745   -0.03073839873206
N          -2.75861581457989   -9.49995153945717   -0.06956830389667
C          -4.09271659768682   -9.15445459403518   -0.19128489374546
C          -4.65745473329490   -7.91245165861306   -0.23795832490057
C          -6.06152095852562   -7.96741001423414   -0.36725010968275
C          -6.54584703512559   -9.23350926052947   -0.41794359695688
S          -5.29796988768929  -10.41035107626292   -0.30809077205083
H           1.77571684002653   -1.29578838872810    0.37586914868844
H          -1.12240213455982    1.64565655869292    0.13328386932711
H           0.47159227348461   -9.00540120405913    0.23186576321552
H          -0.26693289543306  -11.59755216246214    0.15223777693923
H          -2.94161288062488  -11.60754586626328   -0.09541951976265
H          -4.08394111851520   -7.00607620150795   -0.18091169157719
H          -6.68242629252817   -7.09182611444831   -0.42087843253651
H          -7.56145552773661   -9.56180180641720   -0.51341853407384
