23
         -46.752709429473          0.000965658249
H           0.96273621624282   -0.31292140445945   -0.22948169754486
C           1.99968973767542   -0.07327205580055   -0.11004046593090
S           2.74210925006602    1.24615872481146   -0.96088480656999
C           4.22985999946282    0.72439664473853   -0.14509489384786
N           4.03238421395886   -0.28921922189020    0.65094118568463
N           2.79476731303472   -0.71809316733308    0.66561722495881
N           5.30834926902613    1.50364148675978   -0.23260419360053
N           6.47968801792645    1.01140453158637   -0.17915893226168
C           7.50570917298200    1.87572892230280   -0.08559742287282
C           7.62924396475596    3.27141930600557   -0.00035420756316
C           8.99418285758871    3.50204252817917    0.05457456532697
N           9.67926016801804    2.36153318761917    0.01352080686353
N           8.79032403374680    1.38701809168419   -0.07061001089880
C           9.20210343246985    0.07353274880065   -0.11599658500676
C           8.53598247403595   -1.13209210072826   -0.14532474248206
N           9.43997194972453   -2.13647536676584   -0.18364434418153
C          10.61951832645201   -1.57842900681974   -0.17588991230757
N          10.53710807366938   -0.22827329782176   -0.13476073891293
H          11.27211899721826    0.46082142605106   -0.11326351722118
H           6.82813174803738    3.97994705228455    0.01196425446057
H           9.51885844936344    4.43409639389985    0.12283283811599
H           7.48207462756729   -1.31420256215412   -0.13388753039454
H          11.54790770697633   -2.11179286095032   -0.19909687381310
