27
         -54.337574500176          0.000922661654
C           3.16245970598209   -1.02830312207360    0.28860241996895
O           3.59282347464011    0.16528121077769   -0.35013214366552
C           3.81309907873976    1.18908498068214    0.44945488529022
S           4.38147335688780    2.70474770339271   -0.22803537112683
C           4.37388738725641    3.26320390058330    1.46837911584395
N           3.95976835032877    2.35418787078131    2.29429152092958
N           3.64040015717680    1.20843066012353    1.73008690058471
N           4.58509307522485    4.56139004569453    1.69904806002747
N           5.07382859758332    4.94296108329473    2.81113636556724
C           5.08202849818490    6.26595792325133    3.05554843338346
C           4.54575590162719    7.39677775748976    2.42387107814106
C           4.89228739126258    8.45847212726288    3.24747173169551
N           5.58532478800710    8.04689377266739    4.30334184585354
N           5.69909389269865    6.73435253578988    4.19499067045425
C           6.37501458717896    6.01359890051315    5.15729923628778
C           6.95112646042705    6.45526689439163    6.32091210311056
C           7.49811479951653    5.30180441533316    6.92521585021483
C           7.21421025042409    4.26412093776989    6.08873966284449
O           6.53425108357098    4.69131806919320    5.01221260208145
H           3.00431524945987   -1.75030063439244   -0.50889527363134
H           2.23751755612039   -0.85237754831622    0.83980088545111
H           3.92436978462973   -1.38427445884453    0.98388986458017
H           3.99113011289563    7.40793983154008    1.50924765650911
H           4.67639294805575    9.50154870469214    3.12845150179639
H           6.96816443463902    7.46396245928951    6.67443273029567
H           8.02824847047903    5.25477344283515    7.85360988485729
H           7.42998060700338    3.21621053627832    6.14324778265608
