27
         -53.515415961668          0.000571417499
C           2.49424373434675   -1.34662537817447    0.14230987314042
O           2.52018931249165   -0.01975721614198    0.65291895056180
C           3.21855114939509    0.15428219595492    1.75394830627573
S           3.30840677998795    1.74129283531803    2.48110565278681
C           4.33203986817444    0.93286938601231    3.70280529638421
N           4.49339973723002   -0.32812401295835    3.46179457913668
N           3.88174430686339   -0.76531766463244    2.38668162921998
N           4.83311290459536    1.70143731506046    4.68211482498248
N           5.50928166158140    1.11478812303174    5.59887785413322
C           6.04511608828529    1.86208736757000    6.56914956051725
C           6.08429627860961    3.22194740531393    6.91827409964471
C           6.84097747407745    3.25901418104428    8.07771034228670
N           7.24995456263540    2.04164190622024    8.43543861246944
N           6.77417940728010    1.20675326776689    7.53613865108663
C           7.00224850206418   -0.14860643429965    7.58153265265423
C           7.74526467393378   -0.81634363261826    8.51849415171232
C           7.77396730991571   -2.20060447471439    8.27135393027964
C           7.06043561600853   -2.54712528940083    7.16665332371983
S           6.32741432101096   -1.19908965607070    6.38347417950862
H           1.90319959725739   -1.30014480669359   -0.76896788639440
H           2.03503097829016   -2.02312764917248    0.86529473429098
H           3.50704532060566   -1.69272818898802   -0.07084999215987
H           5.62062647125039    4.02742771618058    6.38917800393587
H           7.11452383163292    4.10493363561663    8.67650077581336
H           8.23678350272636   -0.31955523415177    9.33347395682696
H           8.30298995138101   -2.90259951278736    8.88989859496496
H           6.92036665836881   -3.52866618428618    6.75938534222187
