30
         -59.105008933188          0.000584090801
C          -1.18560390602256   -0.44910018119342   -0.42559364925317
C          -0.57586472583762    0.79091418799139   -0.18347799561924
C           0.60768188785355    0.67410685969186    0.48263872859978
S           1.00671979738423   -0.95541929265416    0.82952168988222
C          -0.45173705042505   -1.50486222957668    0.06439536932374
C          -0.79217168772422   -2.88250206944992   -0.01749589700870
S           0.18006403322076   -4.17184035163217    0.67521959879479
C          -1.08702005271680   -5.25080454276664    0.06563412247338
N          -2.02694652045568   -4.60847993243846   -0.57498057580831
N          -1.86142520581515   -3.32120324919043   -0.62292466764716
N          -0.88286736405066   -6.56583465058152    0.14433014550545
N          -1.87720320313163   -7.36291143382062    0.11333633964439
C          -1.64941033276336   -8.67735264097408    0.01526882875609
C          -0.53547153342114   -9.51917637427455   -0.13071129603047
C          -1.07142234268138  -10.79599054948902   -0.17663980647797
N          -2.39972521016018  -10.77356301095586   -0.07423299677109
N          -2.74628965475527   -9.50868740201655    0.04050202130460
C          -4.05556285799873   -9.10396507939862    0.15677850543152
C          -5.15789394696432   -9.91601439345704    0.17547551393230
C          -6.34858194969579   -9.17725950796116    0.30048453254145
C          -6.12634666232925   -7.83765712661335    0.37419418873926
S          -4.45595124751771   -7.42564031688486    0.29282197237697
H          -2.12099976049218   -0.58992435143039   -0.93420499314202
H          -0.99375144954691    1.73317691264752   -0.48895846984284
H           1.27405436491469    1.45503921014434    0.79145075480187
H           0.48881417499064   -9.21651087345306   -0.18705450590401
H          -0.56497038912026  -11.73503125762060   -0.27925482956852
H          -5.09470183410634  -10.98531435651611    0.10100535175526
H          -7.32443888499973   -9.62667932077837    0.33330357391467
H          -6.85392648563446   -7.05651267534531    0.47072844529525
