24
         -51.612345221023          0.000488454233
C          -1.27432050259114   -0.24467809935465    0.00026050493853
C          -0.38450734480750    0.84366457795084   -0.00419763878219
C           0.87184987616961    0.30435572993155   -0.00261071542044
O           0.82091752692140   -1.03005343228914    0.00257866931369
C          -0.48543964409796   -1.37745144879375    0.00439018008337
C          -0.86214367105286   -2.74752419537843    0.01137527721789
S           0.28475339302075   -4.06022641078704    0.01954562398449
C          -1.15102286842056   -5.11070014713187    0.02660589906361
N          -2.26206710807926   -4.42911727089906    0.02216409572765
N          -2.11253732707380   -3.14524887325459    0.01391563162811
N          -0.93873204537053   -6.43209807496023    0.03846266219312
N          -1.96847280770194   -7.19829679642944    0.04339978617239
C          -1.71276797508413   -8.52228303537773    0.05968452560544
C          -0.57533322699252   -9.32720168202316    0.07636131939269
C          -1.06335726733063  -10.63747520658768    0.09019815531310
N          -2.38040452628364  -10.66814169122765    0.08305287703973
N          -2.78571907438736   -9.39731288284707    0.06468351101422
C          -4.07305061299117   -9.05721742021369    0.05276189466695
N          -5.18061390597472   -8.77661565443715    0.04331137580337
H          -2.34386236650226   -0.22957443877412    0.00067193419416
H          -0.63660499648869    1.88382753175976   -0.00799788787640
H           1.84349286451077    0.75819162859498   -0.00462852065642
H           0.44078784939196   -8.99246755168975    0.07790403140198
H          -0.51123423878377  -11.55630515578096    0.10507680798104
