30
         -59.588753013689          0.000537873033
C           0.56459768688652   -0.80773689669225    0.70620768031646
N           0.44264608721594    0.51800748820081    0.49954843375882
C          -0.63679534359774    0.67602295273787   -0.22350748268097
N          -1.23371989266938   -0.49941228163817   -0.50291611368651
H          -2.06898671225507   -0.67937800028373   -1.03652697452842
C          -0.47490885264578   -1.47989914859535    0.08793522074356
C          -0.81641921423097   -2.85605638799744   -0.00230746169956
S           0.11111779125009   -4.13516427642013    0.75275135882977
C          -1.12476826400286   -5.21927001814283    0.07426998360705
N          -2.02638474950722   -4.58091474526771   -0.61838589902589
N          -1.85253759118158   -3.29055313223971   -0.66525089737384
N          -0.91956022866542   -6.53338601928155    0.15556617399897
N          -1.90408354280052   -7.33974147193935    0.10086255573651
C          -1.65864252094487   -8.65001986716171   -0.01337673945913
C          -0.53230659151679   -9.47125635003171   -0.18032580609870
C          -1.04833873932615  -10.75519954471775   -0.24901697901951
N          -2.37618403124626  -10.75559610164530   -0.13873533795531
N          -2.74223238414853   -9.49893399271851    0.00133793972820
C          -4.05741340051783   -9.11889383312394    0.13280448307932
C          -5.14522268487782   -9.95070314682135    0.13993321083736
C          -6.34821826430460   -9.23628647044793    0.28590313972653
C          -6.14961205164271   -7.89475570494186    0.38694273210595
S          -4.48697294257842   -7.45170795472268    0.30612210818619
H           1.37522717784392   -1.21561286368198    1.27573832267013
H          -1.00830187732726    1.62358258165178   -0.55887993949475
H           0.48648183533341   -9.15071377797022   -0.23792808795408
H          -0.52807425801128  -11.68401472848124   -0.37304632871660
H          -5.06201843238341  -11.01690862897928    0.04288208429619
H          -7.31588440385434   -9.70343309113493    0.31392315530064
H          -6.89063360429772   -7.12906458751121    0.50298546477611
