23
         -50.432217900058          0.000862923990
C          -1.15555284541004   -0.31068126431909    0.00313234456483
C          -0.43803776780207    0.89337825138592   -0.00169481090527
C           0.91244433775544    0.70074201551594   -0.00102434338274
S           1.34010925045836   -0.95620834069115    0.00546119826083
C          -0.33438267893423   -1.41643476495407    0.00753653192841
C          -0.74807741940670   -2.77544282300621    0.01466899889237
S           0.35089052177790   -4.13288897111562    0.02350692633006
C          -1.12063784085884   -5.13331650615254    0.03028577057443
N          -2.20518594663014   -4.41285231149908    0.02538519216135
N          -2.01000863111390   -3.13370775262038    0.01696781200527
N          -0.94137474234978   -6.45916616704494    0.04339790911333
N          -1.97994217954480   -7.21156951069984    0.04697314405360
C          -1.73566071468103   -8.53771315218579    0.06540930486782
C          -0.60114581114526   -9.36726574110206    0.08564843518865
C          -1.10127852843031  -10.66077149156252    0.10001915284999
N          -2.43364174263378  -10.66407234435400    0.08995270158674
N          -2.77344818245629   -9.41446726960393    0.06997856763686
F          -4.08274510082975   -9.08280832924140    0.05504033400836
H          -2.22624341933017   -0.39380997479392    0.00366375696751
H          -0.89788203152476    1.86488983294113   -0.00536181726400
H           1.68617862264434    1.44296616388578   -0.00394138426843
H           0.41720379263635   -9.03948361355331    0.08873524241547
H          -0.57110094219053  -11.59155593522900    0.11719903241458
