18
         -36.852311068970          0.000677315212
H           1.05523475987476   -0.52145065138335   -0.11682559876233
C           2.08597791846260   -0.23754582768435   -0.17853759561385
S           2.71844055760405    1.12081794323722    0.70122993096895
C           4.27002879598453    0.66415899747774   -0.02470950037262
N           4.16710340196857   -0.36452682643422   -0.81967962971523
N           2.95201098216536   -0.85260541709111   -0.89945304241463
N           5.31036399949562    1.48799283083597    0.11508813873870
N           6.50051924886495    1.03359982258165    0.09783249921391
C           7.51682213304861    1.90051226047556    0.00072017987302
C           7.70000046307401    3.27948553939132   -0.23869830943691
C           9.06514935146917    3.43732301772634   -0.32178588514559
N           9.70524133058093    2.26670398880262   -0.14972894733685
N           8.78240486859427    1.37467424516494    0.04256203431829
N           9.06892286802562    0.07433243879179    0.33669067034436
H           6.92925710855808    4.01448793325254   -0.33630054576712
H           9.63609157544367    4.32571213765292   -0.50086028117096
H           9.92441692109916   -0.22937170518352   -0.11450147231908
H           8.26098371568569   -0.50965072761411    0.13834735459817
