30
         -60.410631856930          0.000386827471
C           0.55373463863913   -0.78518341378801   -0.75966807948868
N           0.49194898505493    0.54232912633897   -0.53515285280003
C          -0.49612776032656    0.72383994336434    0.30331243170804
N          -1.09212495489339   -0.43736198815930    0.64018077962748
H          -1.86858947259329   -0.59731230220071    1.26159415310557
C          -0.43020861896254   -1.43336685077266   -0.03503421912894
C          -0.80107767853092   -2.80003993143589    0.08367520457028
S          -0.00150618171024   -4.09955402382019   -0.78094256631248
C          -1.19772650596651   -5.15218157951480    0.01045522861316
N          -1.99615040087296   -4.49462454594104    0.80644445416113
N          -1.77092089105784   -3.21123366846850    0.85031079002558
N          -1.04009248736459   -6.46929241321264   -0.08550401689391
N          -2.03344442652947   -7.26166001781504   -0.03441572069527
C          -1.77053461938096   -8.57329779476997    0.10031610874782
C          -0.62199720737086   -9.33226072255969    0.36694811299198
C          -1.07562562267694  -10.64092641806340    0.44923853467458
N          -2.38731129759979  -10.71276394310805    0.25173252001223
N          -2.80897211391466   -9.47735947913191    0.04460126541337
C          -4.14536263257063   -9.22851121665713   -0.18801034030127
C          -5.20424479761649  -10.09944377019758   -0.15687335239137
C          -6.33845890829483   -9.31561182961378   -0.46351701795551
C          -5.88221702244959   -8.04595378787935   -0.65564672642436
O          -4.55000127432003   -7.98761508077633   -0.49237858019165
H           1.28524967920833   -1.21036008594110   -1.41674326938611
H          -0.80285322583090    1.67810074224331    0.68231000179249
H           0.37321746459571   -8.95723088629518    0.48231146845773
H          -0.51779205480592  -11.53581315883172    0.64076487539618
H          -5.15617630696856  -11.14553822097314    0.05813518554015
H          -7.35168953849505   -9.65336893396790   -0.53019391190283
H          -6.38264476639696   -7.13129374805390   -0.90214046096478
