20
         -40.681444963237          0.000535486182
C           1.29006409816101   -0.21810473096854    0.29042182766768
O           2.70068593450057   -0.23183322730812    0.11461602712230
C           3.20368953944429   -1.35154535029795   -0.36062932965948
S           4.93895632603704   -1.49689907111541   -0.57129032626222
C           4.55656067817161   -3.14774566706328   -1.13161196769928
N           3.28418015547088   -3.39622322033618   -1.13167739862062
N           2.53372531169018   -2.40021979355178   -0.71405379605137
N           5.54552870995953   -3.87391049879749   -1.66146753669213
N           5.47921316166934   -5.14550320807824   -1.64933950747702
C           6.42245791516478   -5.81576049005379   -2.34620688566291
C           7.49537481189343   -5.47832113642643   -3.18341553777257
C           8.03193359207999   -6.70126538264957   -3.56909648123788
N           7.36106130432076   -7.71412654615385   -3.02923427840738
N           6.40589146565771   -7.17822932234566   -2.30350495180018
H           5.75121475373126   -7.74953136422694   -1.79134370167057
H           1.04744975752275    0.77788985980158    0.65288453911728
H           0.98982120775157   -0.97549754406858    1.01690277530535
H           0.78662840599830   -0.41870251467899   -0.65684683001565
H           7.81508747864335   -4.49318322399426   -3.45066166572282
H           8.86873539213134   -6.89446756768654   -4.21005497446026
