23
         -47.095580872477          0.000378919474
C          -1.27490996444906   -0.24309779313765   -0.01024024469164
C          -0.39309202429613    0.85318981276021   -0.00821953231318
C           0.86655058255633    0.32427370766567    0.00490186137713
O           0.82529283126154   -1.01143735161979    0.01110368356795
C          -0.47796692001831   -1.36837226918411    0.00199453409598
C          -0.84316173767983   -2.74353868663938    0.00771825582432
S           0.32166162213722   -4.04486651800415    0.02812127828267
C          -1.09808111374762   -5.11054387323293    0.02463595693533
N          -2.21816485874057   -4.44649754793071    0.00964133348521
N          -2.08481203272887   -3.15537549944500    0.00041200124962
N          -0.87195524403207   -6.43361632641542    0.04308121580815
N          -1.90167949942386   -7.20033817994862    0.03706042813756
C          -1.66246775101656   -8.52619659360171    0.06195449927863
C          -0.52769532684670   -9.35180457122351    0.09444297592444
C          -1.03919313493480  -10.64343683766973    0.10751697533584
N          -2.36912213700108  -10.63664171191024    0.08565186495872
N          -2.73045826899989   -9.37355932082830    0.05841937244102
H          -3.70244710130402   -9.10462973825015    0.03842750938619
H          -2.34441365861916   -0.23574028750821   -0.01915700283711
H          -0.65393259920919    1.89127175860249   -0.01533841982286
H           1.83489003555750    0.78485628877392    0.01079597055793
H           0.49360885569738   -9.03421984476428    0.10574395965586
H          -0.50972055416225  -11.57495861648837    0.13181152336223
