25
         -49.683496811575          0.000495708389
C          -1.26051778082067   -0.39771887265320   -0.02990139150533
C          -0.59307765694972    0.83622591433509   -0.05114791237447
C           0.76296521249262    0.70034195798032   -0.04358977067735
S           1.25760633639898   -0.93955009810813   -0.01040770231975
C          -0.39603141759185   -1.46743013715656   -0.00640879295487
C          -0.75452903677056   -2.84386587143486    0.01946205673036
S           0.40589711212339   -4.15759783999733    0.03825997800711
C          -1.01488725378046   -5.21476758593340    0.05359677747755
N          -2.13389665978153   -4.54811807226145    0.05036277948879
N          -1.99410774703133   -3.25475915706132    0.03267005632339
N          -0.80196117190658   -6.53873311624794    0.11200491836600
N          -1.84475270652586   -7.28799431087534    0.02726936252082
C          -1.67548961861913   -8.61319936099291    0.08397365128468
C          -0.61559676773518   -9.54485769611117    0.10641363885700
C          -1.23379571947525  -10.77320684761045    0.03287527044503
N          -2.57236370353614  -10.64865594030920   -0.01938350145484
N          -2.81563617117810   -9.37327170382383    0.01209145787685
N          -4.07795181218480   -8.86042253119271    0.07626751688838
H          -2.32689717194748   -0.52465265456973   -0.03107819012554
H          -1.09399037040986    1.78718883162538   -0.07108543937525
H           1.50641445282440    1.47266954199804   -0.05554170286503
H           0.42820192068868   -9.31779968482173    0.15369504042789
H          -0.79740682576332  -11.75128118113995    0.01123140048126
H          -4.73167301977915   -9.38720476624397   -0.49188839562333
H          -4.04215242274065   -7.86522881739330   -0.13261110589934
