19
         -41.401840536540          0.000424562038
N           1.35282649834042    0.12285855765772   -0.04628754173103
C           2.68869168440075    0.11333079059515   -0.04072350066197
S           3.65545551894370    1.57154570980237   -0.03654164638274
C           5.05614478090698    0.44412752788174   -0.04282885916825
N           4.67912086440523   -0.79546996677503   -0.04642004980838
N           3.39563151448453   -0.99174644667675   -0.04501673572225
N           6.26635536658456    1.00240945801533   -0.04151738997831
N           7.29327568606395    0.23085680763080   -0.04871179468816
C           8.48819395215478    0.86017555970433   -0.04606911920742
C           8.92571532137321    2.18208740778261   -0.03759243397641
C          10.32187833129538    2.09834579503429   -0.04067058309670
N          10.73689794268806    0.84867626938550   -0.05006956810472
N           9.63748501629249    0.08929601720717   -0.05348954322362
C           9.68818418185136   -1.24043402163270   -0.06277921984611
N           9.74339032857781   -2.38191196129438   -0.07056522256176
H           0.84085257379768    0.98478327668427   -0.01739463113415
H           0.86860970597743   -0.75758754436719   -0.02983158648700
H           8.30888480954761    3.05615478031526   -0.03043962503246
H          11.03859592231406    2.89572198304950   -0.03641094918855
