16
         -33.436491136006          0.000903469090
H           1.11817716777659   -0.44009530087501    0.00950548619749
C           2.16383281725438   -0.20595677532936    0.00711158127758
S           2.74141058997174    1.42013562507751    0.00749391812283
C           4.35633386843351    0.67831747691576    0.00212170321573
N           4.30219131887644   -0.61828470895649    0.00046639337037
N           3.08827618139952   -1.10572484122212    0.00309626506289
N           5.40961237382598    1.51634937739323    0.00064449798112
N           6.57689567990692    0.98716573814533   -0.00400232240235
C           7.62079342356282    1.83863151916026   -0.00512358878579
C           7.78972085460155    3.23278441367078   -0.00261327048160
C           9.16644624248971    3.41458479083837   -0.00618333942180
N           9.80694205051359    2.24816935532670   -0.01051247823664
N           8.88123975550781    1.31770651773343   -0.00986413619782
H           9.11912448129640    0.33726754985900   -0.01261471384592
H           7.01466643927866    3.96993475865649    0.00115661968797
H           9.72317675530437    4.33029450360611   -0.00583261554407
