23
         -43.857409931248          0.000839644890
C           1.37899003763540   -0.32343887059973   -0.11013990503936
O           2.79637506510471   -0.40143479131939   -0.17536181093555
C           3.32292008968322   -1.53042143850572    0.25411029471511
S           5.06306657525623   -1.74487431053042    0.19628380410074
C           4.70978451494451   -3.35991475080754    0.87098437309205
N           3.44455858395024   -3.55354044851787    1.07657637941468
N           2.67590681992841   -2.53669288798180    0.74386384789308
N           5.73986066053142   -4.10565512446842    1.27937561294464
N           5.63750552659451   -5.37463143706252    1.32101451054322
C           6.64241599576141   -6.05078947276427    1.91406450979469
C           7.82197532329224   -5.70746341530799    2.59663349891328
C           8.37511531046429   -6.92523182730204    2.95690315134427
N           7.61428560064770   -7.93906869965448    2.54222637064070
N           6.58574202728080   -7.41489682905179    1.92285413349380
C           5.55374463655970   -8.22936374160873    1.35371272509428
H           1.12027507659206    0.66446390828922   -0.48392954859404
H           1.03824432898205   -0.44830434962604    0.91962703654033
H           0.92510475324990   -1.10054692351514   -0.72857307219018
H           8.18886704105110   -4.71979028129821    2.78142825942069
H           9.28141880523642   -7.12315500067861    3.49354637208746
H           5.82101780672716   -9.27015224450650    1.52212286846670
H           5.46614052530824   -8.03245961886333    0.28490726384059
H           4.59641489521768   -8.00642744431881    1.82594932441892
