19
         -36.614299025454          0.000603573647
H           1.09091754686295   -0.35745829854225   -0.22959062446704
C           2.12628171418426   -0.11151865374763   -0.11060583830142
S           2.86653307208999    1.19315951471373   -0.98940721453068
C           4.35452469746335    0.69408769109412   -0.16014743506249
N           4.15934166658818   -0.30235641568491    0.65823778755247
N           2.92161813308777   -0.73484617780627    0.67978412434486
N           5.42507453856429    1.48173447571876   -0.24196705920717
N           6.60669632135570    1.01954251458423   -0.23325549600311
C           7.61895673098632    1.90076725518824   -0.11168708831067
C           7.73033408931854    3.29368757712512    0.04267343506909
C           9.09480122056707    3.52247073267472    0.10139369896687
N           9.77708143451763    2.38077622550245   -0.00108632751557
N           8.89773317861038    1.42042888008654   -0.13112682243858
C           9.29123847285293    0.04687281286982   -0.23664165789025
H           6.92703662560351    3.99853294206982    0.09267837628359
H           9.61983597600632    4.44989939257503    0.21227917424140
H          10.35568984468455    0.01816394666095   -0.45823907356836
H           8.72176639022344   -0.43897384783198   -1.02733157762673
H           9.09940834643326   -0.47593056725043    0.70199961846369
