21
         -40.059660114446          0.000789482564
N           1.53073366250637   -0.02419316518325    0.03022169305153
C           2.87257749472727   -0.02158276592473   -0.03179459279047
S           3.81647679920251    1.45456538000808   -0.01504810816952
C           5.23248368674045    0.35303685875864   -0.04538041542056
N           4.88123630402366   -0.89104464881515   -0.06639342723065
N           3.59199850465664   -1.11026897936116   -0.06145793639715
N           6.43668674327109    0.93582342686863   -0.05079090195871
N           7.46988582819936    0.17181873035689   -0.05630518021549
C           8.66604962960502    0.79288298719850   -0.06534529469213
C           9.10894936776647    2.12680070343680   -0.06664879149673
C          10.49076619452817    2.02846649148777   -0.07412637485741
N          10.88210781684817    0.75374812634012   -0.07773732634950
N           9.79270728567702    0.02293157544292   -0.07228426308654
C           9.84680541781671   -1.40850928990281   -0.07533540827874
H           1.02451574693991    0.82719007587375   -0.13341065608714
H           1.06357683381676   -0.90288771688290   -0.11510298670569
H           8.49561371683880    3.00318779859306   -0.06181264247252
H          11.22294627686497    2.81126757711269   -0.07692292069138
H          10.89438187620754   -1.70130178503470   -0.07207661092093
H           9.34939596387057   -1.80171238257667   -0.96246667840863
H           9.34207484989250   -1.80512899779651    0.80599882317836
