24
         -51.249531692549          0.000523264271
C          -1.23733393379360   -0.28066126383173   -0.00258708065047
C          -0.41182294726042    0.80578514955018   -0.00551089562036
C           0.89699641117838    0.26805186664557    0.00060711347012
N           0.87127883321037   -1.03985010564408    0.00678549063950
N          -0.42458355236517   -1.38005944103244    0.00485856851542
C          -0.81678310738474   -2.68058955261009    0.01200042019239
S           0.32519679148661   -3.98885045912284    0.02358551710661
C          -1.12575235690813   -5.02629701316139    0.02859573327134
N          -2.23036399059155   -4.34038478434392    0.02140633407997
N          -2.07022681204275   -3.05141076424921    0.01233485491121
N          -0.92275381013924   -6.35084307332960    0.04342844763075
N          -1.95403198621958   -7.11280206614484    0.04554402513287
C          -1.70119941023414   -8.43773194937341    0.06568427404685
C          -0.56381838390003   -9.24306366123940    0.08645916244160
C          -1.05238887247207  -10.55290181455640    0.10191673477626
N          -2.36973371835545  -10.58227459185802    0.09209649002688
N          -2.77452943268941   -9.31224599229043    0.07012376250554
C          -4.06186135043351   -8.97090821549347    0.05549103422372
N          -5.16869380410875   -8.68816729287694    0.04350566396444
H          -2.30144641505093   -0.39078187261545   -0.00488332689902
H          -0.68646384757639    1.83982483767532   -0.01103542386424
H           1.83198495552370    0.79130880072504    0.00075127515328
H           0.45217529652328   -8.90796478832520    0.08937346911696
H          -0.50096455639641  -11.47208195249732    0.11983835582838
