30
         -60.751652299740          0.000689253430
C          -1.29909090973853   -0.26459254335807    0.01601873804121
C          -0.38616837904532    0.80596424013558    0.04862571619591
C           0.85666111705181    0.24128751282561    0.09433436224865
O           0.77632025538295   -1.09263990205559    0.09280468885571
C          -0.53595773881860   -1.41219801715644    0.04478835198134
C          -0.92869045742883   -2.78027847506849    0.03241335010765
S           0.22132653684280   -4.09330752089625    0.07468039036359
C          -1.21043327679280   -5.14539788294392    0.02604203658244
N          -2.32180452263662   -4.46857038646095   -0.01328574451953
N          -2.17387720636752   -3.17791383636923   -0.01006163918118
N          -0.98207164192727   -6.46581418791739    0.04072784187385
N          -2.00327543232566   -7.24549978966140   -0.00039457824049
C          -1.73281456244547   -8.56133767265363    0.02050872354214
C          -0.55952054508022   -9.32903187386805    0.07585625731679
C          -0.99773697588270  -10.64467918681237    0.06614392714274
N          -2.32378802569645  -10.71419953230693    0.01065716763689
N          -2.76848331365577   -9.46921442842548   -0.01730426208459
C          -4.12350929507697   -9.21959500208530   -0.07520146618870
C          -5.16433863982291  -10.11268892804438   -0.10740778880889
C          -6.33130105677046   -9.31907556513518   -0.16371676187223
C          -5.90960873055167   -8.02266517232427   -0.16078793686402
O          -4.56974454312967   -7.95752614386035   -0.10750544415106
H          -2.36711841741577   -0.22431938603853   -0.02304888476296
H          -0.61649066090517    1.85121785191905    0.03956753710451
H           1.83768901294770    0.67262067180670    0.13008094928933
H           0.44079279919860   -8.95224657972185    0.11543257351388
H          -0.41995916708151  -11.54697823119844    0.09682344711015
H          -5.08386289454393  -11.17863646992941   -0.09223868942469
H          -7.34208812430646   -9.66873441293154   -0.20081717301317
H          -6.43993520397735   -7.09237914946386   -0.19252568979532
