26
         -49.446589301505          0.000760407136
C          -1.08101241216065   -0.34732782975805    0.39530694966337
C          -0.40694513225699    0.86195470410698    0.16663493979688
C           0.79552429619588    0.68577152862418   -0.45014729618827
S           1.13430317292457   -0.96405115622826   -0.76591392021545
C          -0.37599903099068   -1.43961976609077   -0.05457337622491
C          -0.78040955794651   -2.80043566433392    0.02560949795050
S           0.17892048450683   -4.14090920132002   -0.59172046886122
C          -1.16751260227501   -5.15815681932522   -0.04685127027018
N          -2.11855698564117   -4.46729080106768    0.52586451262749
N          -1.89894426480970   -3.18588735503675    0.56956007993224
N          -1.00224453180453   -6.47759507924972   -0.04812140114897
N          -1.99002815252555   -7.27306154353865   -0.15118817952539
C          -1.75125707227487   -8.58209765427082    0.06502496785217
C          -0.62691997351432   -9.35553538934958    0.40108131934549
C          -1.10742730487736  -10.65363361909932    0.44992198642500
N          -2.41206936736918  -10.69297681836567    0.17685098764016
N          -2.79007745387373   -9.46026319300997   -0.05656766719524
C          -4.15385646447233   -9.13136563635443   -0.34744229262671
H          -2.04088784586355   -0.44095585766566    0.86812494840476
H          -0.79407974535287    1.82502569600362    0.44679598652846
H           1.50766684336700    1.43271276407723   -0.74039114279328
H           0.36831788166958   -8.99900883191756    0.56524287199872
H          -0.58007734880617  -11.56070446594191    0.66781816540827
H          -4.60463687413416   -9.95939794252755   -0.89191913824274
H          -4.17809008288371   -8.21834365441101   -0.93910909757316
H          -4.71129047483111   -8.96935641394988    0.57796803729263
