26
         -49.929118152174          0.000820003188
C           0.86571641752680   -0.82853779779285   -0.00207696002719
N           0.71122177259026    0.50950468562707   -0.01559087821953
C          -0.57971620526752    0.72692996460692   -0.01699288342182
N          -1.28495377758259   -0.42107410781441   -0.00500793696816
H          -2.28343898129942   -0.55488665347818   -0.00298459301679
C          -0.37228864491891   -1.44692164906807    0.00469908682300
C          -0.76680689332976   -2.81176768417708    0.01889994686332
S           0.35884260796486   -4.14381372245646    0.02327445076253
C          -1.09444535156120   -5.17216868744273    0.03900734543201
N          -2.19319990862338   -4.47808452805285    0.04118983309179
N          -2.02046169857037   -3.18742216065824    0.03024288967464
N          -0.89319433970137   -6.49754067341564    0.05608001499171
N          -1.93342903790605   -7.25212512203458    0.04810129400005
C          -1.70455931273930   -8.57744596881894    0.07185720323347
C          -0.56439391613595   -9.40169222475419    0.09494629915895
C          -1.07344251243996  -10.68890960679357    0.10577769938232
N          -2.40800655496037  -10.67773708791499    0.09208909824547
N          -2.77811139915685   -9.42164217613031    0.07123095917259
C          -4.15988260680305   -9.04486186510820    0.05426470393773
H           1.83620483637150   -1.28225035056483    0.00236451325639
H          -1.03025080311278    1.69915514258918   -0.02672764602244
H           0.45538295943337   -9.07879893489367    0.10061278212340
H          -0.54833986339907  -11.62298948833266    0.12285498197452
H          -4.75265679030776   -9.95677879389713    0.05749272952796
H          -4.37814452154549   -8.45735242056950   -0.83792398061928
H          -4.39558547452568   -8.44036808865410    0.93059904664332
