18
         -36.884101342787          0.000899426184
N           1.45564975790288    0.08748459660430    0.12224852796768
C           2.79518860235565    0.09155529524903    0.07446430514665
S           3.73932157474816    1.56776264234728    0.07817912205492
C           5.15580003094510    0.46408654818125    0.05764267038950
N           4.80261781777874   -0.77988914005316    0.04825989917607
N           3.51534469408837   -0.99846696350765    0.05578644513117
N           6.36168029760079    1.04295407759250    0.05273306529044
N           7.39211750160184    0.27665863959594    0.04713395675690
C           8.59236723652682    0.89476179403449    0.04260031661305
C           9.04932614621561    2.22054856835571    0.04248597377527
C          10.43467729333480    2.11016128938086    0.03864630391160
N          10.81859833625750    0.83747213003105    0.03610308666007
N           9.71425434086065    0.12150032249250    0.03861216750497
H           9.74000386834773   -0.88653995917156    0.03783202657884
H           0.94139172936878    0.94119067279186    0.00731427913623
H           0.98553015874113   -0.79507286062845    0.02110318565107
H           8.44705842511662    3.10454291004519    0.04505866757514
H          11.16980218820883    2.89020943665887    0.03750600068042
