23
         -46.753199370768          0.000560962098
C           0.89296971637787   -0.78956564395185    0.00042071814223
N           0.74477894433278    0.54858580183910   -0.00746520299217
C          -0.54537781793884    0.77231490338924   -0.01220395986407
N          -1.25615829655831   -0.37194956021236   -0.00780993189858
H          -2.25543825968022   -0.50046220239026   -0.00976848755419
C          -0.34845491551416   -1.40246121052457    0.00039326670339
C          -0.74885144605513   -2.76529025974325    0.00823600277359
S           0.36835867642171   -4.10261530333287    0.01889741153469
C          -1.09099207984672   -5.12338647977461    0.02408446298185
N          -2.18540042413336   -4.42234683018123    0.01833510186408
N          -2.00577303678450   -3.13438970450180    0.00975329371770
N          -0.89681051289174   -6.44989627782455    0.04032140792873
N          -1.93692912336300   -7.20232510873502    0.03551193579012
C          -1.70562952476261   -8.53027930227355    0.05885563632196
C          -0.57143826946930   -9.35679823868832    0.08625723947485
C          -1.08413906381886  -10.64792659293673    0.09911101186367
N          -2.41412958304426  -10.63948285985536    0.08197081700358
N          -2.77456906460665   -9.37608134981221    0.05770765300268
H          -3.74666281414580   -9.10734274611961    0.04167040796815
H           1.86117849363376   -1.24813824180436    0.00579224838769
H          -0.99093193895008    1.74687799429051   -0.01871765525467
H           0.45005304674731   -9.03976604453442    0.09427373705693
H          -0.55522270594986  -11.57979474232193    0.12006288504782
