25
         -50.147478036710          0.000861185634
C          -1.31406888336514   -0.35459520797894   -0.02912643294419
C          -0.53059149566363    0.76452553749894   -0.04436991679296
C           0.79534453334618    0.27811356296300   -0.02929593175664
N           0.81874731934642   -1.03132676879240   -0.00675406721725
N          -0.46155164035299   -1.41958452856483   -0.00665172099326
C          -0.80753196566494   -2.73718293175367    0.01480073166809
S           0.38659024913724   -4.00412202286474    0.03780004199361
C          -1.01835315882336   -5.09250265990234    0.05045356200378
N          -2.15145978895055   -4.45528711121822    0.04052170852712
N          -2.04078612908307   -3.15231011605051    0.02179271208641
N          -0.77756159796328   -6.41341549466326    0.10485651235164
N          -1.80874960692537   -7.18049264552357    0.04310434729749
C          -1.61763855886167   -8.50218091595404    0.09023184312731
C          -0.54341396692284   -9.41823220477018    0.09078513128167
C          -1.14422747523486  -10.65523008861005    0.02852503477087
N          -2.48594817337583  -10.55043748981840    0.00207470550720
N          -2.74785731045613   -9.27981430419868    0.04009099915842
N          -4.01513841608620   -8.78670038749152    0.12861322094408
H          -2.37326656553965   -0.50448520123516   -0.03130245672962
H          -0.84656849815187    1.78666157378056   -0.06340028237409
H           1.71027495079795    0.83566122562894   -0.03388278171135
H           0.49737929235853   -9.17493650846018    0.11882595195682
H          -0.69462333482253  -11.62711987792045   -0.00189424138614
H          -4.67520795612139   -9.32983137120731   -0.41578325154559
H          -4.00251182262111   -7.79221406289249   -0.08418541922322
