23
         -50.895675263585          0.000717042556
C          -1.23242069671666   -0.28134394331717    0.00071990318078
C          -0.41184820750424    0.80930745291616   -0.00408905196700
C           0.89879508123315    0.27780712731742   -0.00154760020089
N           0.87898701551840   -1.03049225720831    0.00435021313979
N          -0.41505472538693   -1.37656285244437    0.00571686888167
C          -0.80135440950748   -2.67995893410835    0.01334147285874
S           0.34966501235138   -3.98187192273148    0.02207263544068
C          -1.09414697020172   -5.02773008456046    0.02953665354814
N          -2.20286424467256   -4.34997868534727    0.02503315369098
N          -2.05100380362886   -3.05805415288498    0.01617627246522
N          -0.88239200704057   -6.35271813730476    0.04322659272859
N          -1.90912973807957   -7.11895915274055    0.04596676258881
C          -1.65874746529724   -8.44283640033176    0.06494657222796
C          -0.52507369820923   -9.27427586483925    0.08565877447484
C          -1.02699223188752  -10.56685202009877    0.09992976084661
N          -2.35982812487635  -10.56790173280595    0.08945812038073
N          -2.69797741769246   -9.31922705531900    0.06916558679512
F          -4.00593624121383   -8.98477237922483    0.05403473487851
H          -2.29601536476163   -0.39595546193883    0.00117221511638
H          -0.69152486855850    1.84204037359761   -0.00862103356332
H           1.83148973319225    0.80513533166148   -0.00375242492442
H           0.49390648889868   -8.94849210408337    0.08901571372693
H          -0.49890311595849  -11.49876714420322    0.11733810368519
