30
         -59.931099191137          0.000321063820
C          -1.27734364063608   -0.35311343652120   -0.42383183891649
C          -0.49513527692610    0.76759418995941   -0.08869103109612
C           0.62122274227054    0.27843325725992    0.52739377026747
O           0.58388391687039   -1.05634480651453    0.59657500042443
C          -0.57161429932023   -1.45181296245090    0.01795561342999
C          -0.89473046675920   -2.83556829197171   -0.05633052132107
S           0.12273889561950   -4.08937107151719    0.62888283610613
C          -1.12837317782260   -5.20407134281225    0.04938878833191
N          -2.09687656428330   -4.59112860099538   -0.57744236670284
N          -1.96502495834914   -3.29969593281794   -0.63825415685962
N          -0.89456683248958   -6.51473903583577    0.13331031634211
N          -1.87537956682293   -7.32927885104395    0.11267147956560
C          -1.62670337376665   -8.64018776452895    0.01991047299354
C          -0.49853341465480   -9.46663606716873   -0.10351719317696
C          -1.01535872937341  -10.75114611677089   -0.15237558101764
N          -2.34559230996398  -10.74725820497833   -0.07369074820433
N          -2.71194013086474   -9.48721702440550    0.03096807716233
C          -4.02875138412400   -9.09956215278481    0.11667458941575
C          -5.12076003101945   -9.92597202003329    0.10226637926746
C          -6.32357121795167   -9.20348012149818    0.20209405023358
C          -6.12025153165064   -7.86161652351295    0.29054258138805
S          -4.45393893886217   -7.42750897054388    0.25267149435670
H          -2.22555240925196   -0.37751777945377   -0.91776433885415
H          -0.72620500715974    1.79561322168339   -0.27722208711637
H           1.48047341452513    0.76669596142550    0.94321294597611
H           0.52208013626275   -9.14921223542109   -0.14273354515699
H          -0.49416681510237  -11.68346294171270   -0.24180361902787
H          -5.04100297173721  -10.99382929714540    0.02163582824250
H          -7.29422500677090   -9.66531271813511    0.20640082125497
H          -6.86010104988779   -7.09056235975279    0.37421198269293
