23
         -47.094578703992          0.000949828964
H           1.10866685172921   -0.50021338358362   -0.20447481718825
C           2.13735279176314   -0.23817122089633   -0.06567714386140
S           2.96200867071094    0.84615991369839   -1.14654802858045
C           4.38009487754268    0.52939691549990   -0.12500446349384
N           4.10744980411940   -0.26618960263811    0.87217649283185
N           2.86333747669953   -0.67830094806667    0.89573447799776
N           5.46527288265025    1.27998591220682   -0.29697107896080
N           6.63975999975835    0.82928015845117   -0.14274405435811
C           7.64600601587767    1.72095001246274   -0.10611527797607
C           7.72806034095775    3.11825937710259   -0.02210512676809
C           9.08638538580353    3.38729348317629    0.05928576296866
N           9.80414187282949    2.26971307060548    0.02613801701273
N           8.94742539919104    1.26899590578500   -0.06920069304795
C           9.40340791571098   -0.03124015119935   -0.12470513870570
C          10.68729818972152   -0.50058557387812   -0.01147661586261
C          10.58180189287519   -1.90326137075257   -0.13786864527853
C           9.25701289442862   -2.17031534962073   -0.31746044252940
O           8.53653092047301   -1.03645938927577   -0.31288395781447
H           6.90532643397445    3.80201507019068   -0.01629025623155
H           9.58207822159119    4.33413136473889    0.13818290199408
H          11.56556248403375    0.08988589749701    0.14159865022031
H          11.38273618758736   -2.61194611969729   -0.09967049671311
H           8.72030248997087   -3.08765397180621   -0.45354006565503
