27
         -53.996208442912          0.000775894725
C           2.98536305304635   -1.10345121545080    0.13119112406366
O           3.33323556801698    0.24344661748716   -0.16338791210879
C           3.62249390754029    0.99599814554431    0.87691451083736
S           4.09472230215908    2.66610516223769    0.62961734095900
C           4.25285291879025    2.70147398377951    2.40797168071196
N           3.94228748578360    1.57158393966541    2.96162940701244
N           3.58561250618415    0.62889598376355    2.11786190308868
N           4.49232464463962    3.88183987228170    2.98911105717339
N           4.98899012105240    3.90265166363912    4.16616318157923
C           5.07985422459751    5.10506755061941    4.76289656522519
C           4.75254607097027    6.42281237385332    4.40829490330657
C           5.13902100858159    7.18798912812102    5.49716781282315
N           5.65920300003353    6.43115011500625    6.46025572450358
N           5.62483881224399    5.18335235766324    6.02152798946858
C           6.08736715067374    4.15610344015170    6.81404449385299
C           6.12200455898465    2.78638197909990    6.67415576195092
N           6.69152732801081    2.24349200115377    7.77449655463304
C           6.99576543924811    3.23518025294706    8.56602652169742
N           6.64948011778925    4.42963594350399    8.03177756420823
H           6.75212314668404    5.35862228433648    8.40875719208077
H           2.76676104062185   -1.56776175330098   -0.82754089233264
H           2.11126334315997   -1.13635647760011    0.78500909669047
H           3.81546964555852   -1.61229100969649    0.62596288168174
H           4.30945934179197    6.73989237468141    3.48800808672271
H           5.06753552339984    8.24844311032101    5.63625411934598
H           5.76885168228398    2.18926281480185    5.85982919014922
H           7.46288605815408    3.13175936138889    9.52424414067566
