26
         -49.910425887227          0.000784842441
C          -1.14222183688236   -0.31181826158645    0.41570113046204
C          -0.36240751047232    0.77173664204909    0.12289660760808
C           0.79049772397461    0.23290146937578   -0.48873562046318
N           0.72003296457441   -1.07325394117551   -0.56321338518832
N          -0.45379408386914   -1.40758842428333   -0.01492273481568
C          -0.85071407229722   -2.70816184434142    0.07277650933491
S           0.13686479524428   -4.00701932936378   -0.55517752682775
C          -1.19404197798653   -5.05100859418949   -0.00125548432847
N          -2.15595134369396   -4.38516884377440    0.57481186970591
N          -1.96098749857219   -3.09146838530066    0.62215701355300
N          -1.00446990150901   -6.36957817743066   -0.00919122274249
N          -1.97568926229832   -7.18117751580901   -0.12928400486110
C          -1.71337636549758   -8.48943554661236    0.06325861925564
C          -0.57464537947509   -9.25048221124017    0.38063280769715
C          -1.03211530830408  -10.55745416542350    0.40009213029812
N          -2.33669759208507  -10.61293972269370    0.12767415303530
N          -2.73662232271228   -9.38301072387571   -0.07682155660560
C          -4.10615913006737   -9.07125702016703   -0.35932706600112
H          -2.10086161537381   -0.41722309527343    0.87841773262123
H          -0.57357645124011    1.80306304208655    0.31454176183015
H           1.64920590920475    0.75019820939675   -0.86700316121460
H           0.41429266282691   -8.87992068092803    0.55119875193858
H          -0.48916164097911  -11.46025546193756    0.59617697453078
H          -4.58170873861096   -9.95980400228435   -0.76894305826482
H          -4.14916937298686   -8.24712875297933   -1.06875198540686
H          -4.62478265091009   -8.77405466224067    0.55442074484948
