23
         -50.915984926875          0.000449083483
C           0.90232790639724   -0.79107749527585    0.00463515490489
N           0.75544879621909    0.54611626733967   -0.00384789245504
C          -0.53506002693824    0.77155812437574   -0.01232582080816
N          -1.24713360798552   -0.37117145921273   -0.00973816104869
H          -2.24679470069219   -0.49801440977925   -0.01447762097124
C          -0.34079966233081   -1.40318196048439    0.00125176051534
C          -0.74255369099410   -2.76437318409626    0.00837461613996
S           0.36823156489383   -4.10480253336590    0.02453669486195
C          -1.09678876401956   -5.12041302280980    0.02582905685294
N          -2.18773419394862   -4.41323490978620    0.01443202645549
N          -2.00309397157776   -3.12947877666068    0.00490059247354
N          -0.90784386666035   -6.44612508674401    0.04094129452071
N          -1.94514295377207   -7.19948398943736    0.04312925750579
C          -1.70336061085200   -8.52560426094716    0.06237708426040
C          -0.57237288756975   -9.35996026898883    0.08319720289742
C          -1.07861082705873  -10.65128442309666    0.09771516687216
N          -2.41108524951705  -10.64834030670085    0.08726693056166
N          -2.74501257247961   -9.39798004042935    0.06670379411921
F          -4.05221996497193   -9.05930693195157    0.05161747866008
H           1.86997116512944   -1.25093186381692    0.01271952320829
H          -0.97861477099740    1.74703470011110   -0.02024910283105
H           0.44771429848508   -9.03767269725963    0.08657018028037
H          -0.55271140875893  -11.58442147098313    0.11534078302397
