23
         -46.272425100036          0.000906614638
H           1.10774622582686   -0.59889980305424   -0.19593946768540
C           2.13028854205679   -0.29749175637469   -0.09471424120876
S           2.78073886303716    1.05219468107221   -0.97124535633300
C           4.30657948233290    0.63103816614442   -0.17165600212803
N           4.18236392841516   -0.38271493902824    0.63772444795443
N           2.97388735343294   -0.88583261293164    0.67469433446554
N           5.33937758631391    1.46873035510027   -0.29172426029305
N           6.53100994231336    1.03397393243648   -0.21630642779387
C           7.54083900388900    1.90795209530647   -0.14400011481646
C           7.68963274090452    3.30216737383479   -0.06626370800397
C           9.05884479388109    3.50020927604974   -0.00243272482994
N           9.72217460834992    2.34440192789418   -0.03293908215301
N           8.81805185921868    1.39308609599747   -0.11819549519812
C           9.14780894609555    0.05839815302587   -0.15901766190054
C          10.41245886841034   -0.46592075677183   -0.10962275311623
C          10.39805455416573   -1.87102093809935   -0.16995524797216
C           9.13877068232364   -2.37657524143741   -0.26487491115922
S           7.92282775596902   -1.15796365991900   -0.28041497055586
H           6.90315124084325    4.02704613781981   -0.06170612297147
H           9.60424193068467    4.42035198725877    0.06486268017723
H          11.29232510226291    0.14492732075531   -0.03272108528561
H          11.28670518936397   -2.47517630419890   -0.14285332311549
H           8.84790079990821   -3.40660149088077   -0.32390850607661
