22
         -44.095374109400          0.000431440906
C           1.64841621080176   -0.93515954517614    0.32148291926173
O           2.70860068157244   -0.15821617719348   -0.21772634494602
C           3.23151501142609   -0.61188518899324   -1.33932968843045
S           4.56951726513037    0.25133686272708   -2.07445462434078
C           4.49611473487666   -1.03724543960171   -3.30525794753087
N           3.55347398925195   -1.89783453663311   -3.07857919451686
N           2.84689211849277   -1.65963019243571   -1.99150929536183
N           5.25877374507391   -0.90840777773916   -4.39654754421461
N           5.54196577924414   -1.95180052733707   -5.07835256429193
C           6.12772158066811   -1.79005564970172   -6.27270395575014
C           6.44349193080762   -0.73440363381528   -7.15346871773394
C           6.93795971563752   -1.35791118748628   -8.27763515532512
N           6.94364505151026   -2.69472187739420   -8.13466926789774
N           6.46701487153881   -2.93217726333534   -6.94971810707904
N           6.40117010486028   -4.18885451438174   -6.42131148145356
H           1.31959208172539   -0.40744259909156    1.21347254147970
H           2.00080313232589   -1.93702817403732    0.57484633699663
H           0.83354588620858   -1.02003152230525   -0.39996181579520
H           6.31014173278784    0.30969486455355   -6.96523538559635
H           7.29007471128124   -0.92727683507717   -9.19290105364754
H           6.20978800835314   -4.88227158212071   -7.13568269891752
H           5.74182165642503   -4.19426750342473   -5.64744695490859
