30
         -59.584483498855          0.000785802477
C          -1.18534610049916   -0.35550400841563    0.01718849322642
C          -0.46936334521730    0.85049556538714    0.04081505940986
C           0.87970223550339    0.66050959322010    0.09172620472836
S           1.30854319289811   -0.99733935605925    0.11197831935538
C          -0.36434399513093   -1.45930380067640    0.05085398996909
C          -0.77148742234099   -2.82116488729048    0.03981316765245
S           0.34118442312083   -4.17110367343322    0.08433472882974
C          -1.11657434870591   -5.18321013612330    0.03395124320807
N          -2.20938077655879   -4.47573273638870   -0.00764887659983
N          -2.02613642169597   -3.19116720679627   -0.00461664070955
N          -0.92906041415231   -6.50914518675771    0.04848656009210
N          -1.97581495049262   -7.25577617895927    0.00638110885658
C          -1.74751941044185   -8.57963898214668    0.02624416361781
C          -0.60012495385789   -9.38766289201223    0.08133797419109
C          -1.08141314487905  -10.68640388394146    0.06972542558258
N          -2.41114083158838  -10.70950071775524    0.01280370091771
N          -2.81120798606015   -9.44807305906654   -0.01340597426617
C          -4.15456705117900   -9.15130548138477   -0.07228459008465
C          -4.87029104482083   -7.97512358858231   -0.11145049228492
N          -6.19106289310362   -8.26340487790102   -0.16552942408628
C          -6.29081053286615   -9.56427067139976   -0.15893154280197
N          -5.07730800278638  -10.16167379494146   -0.10327200129204
H          -4.84054456024904  -11.14107699628441   -0.08563449404172
H          -2.25527391822761   -0.43921430149023   -0.02254947065218
H          -0.93072057239864    1.82122346715676    0.02097876351747
H           1.65249287886797    1.40310459022409    0.11862259821724
H           0.41250269847556   -9.04612942141718    0.12216072244928
H          -0.53563826778644  -11.60852016889221    0.09954349214704
H          -4.50396942505147   -6.96989743115217   -0.10369888217279
H          -7.21308505877503  -10.10781977672014   -0.19349332697612
