25
         -50.167236946053          0.000522974860
C           0.81694360861599   -0.77904709689243   -0.02905057993809
N           0.61767863577845    0.55324245510264   -0.05155557409477
C          -0.67951602015497    0.72745186438290   -0.04281669969102
N          -1.34575767207273   -0.44353094663958   -0.01551301470791
H          -2.33899779308701   -0.61115402287444   -0.00155343982169
C          -0.39901008008505   -1.43840413846285   -0.00587501096282
C          -0.75086989698628   -2.81542210541965    0.02223841165756
S           0.41614297324622   -4.11428900799006    0.03272700791277
C          -1.00230230535650   -5.18314230662805    0.05985093353057
N          -2.12417974317274   -4.52554576717650    0.06330821703995
N          -1.99052831351454   -3.22818005793537    0.04397972378928
N          -0.77734677311010   -6.50556090698035    0.11419322974580
N          -1.81581534840829   -7.26289745291059    0.05033153749785
C          -1.63424449493289   -8.58648622318723    0.10167548369296
C          -0.56551844482767   -9.50848886804715    0.10648995994679
C          -1.17345611281253  -10.74238577422736    0.04510994309826
N          -2.51399336485431  -10.62989915694899    0.01536537493631
N          -2.76837315203637   -9.35716225056554    0.05019220970766
N          -4.03386382485461   -8.85710533135766    0.13445933387866
H           1.80233258392067   -1.19952902655856   -0.03002722175822
H          -1.16310407837206    1.68368170616605   -0.05582016588150
H           0.47668168348739   -9.27159001127769    0.13641262212499
H          -0.72904816460530  -11.71659013126903    0.01735639173217
H          -4.69364557712196   -9.39929161896855   -0.41126049286392
H          -4.01514832468306   -7.86426382333388   -0.08622818057179
