23
         -46.733156526373          0.000690175959
C          -1.24262131411407   -0.29629844567208    0.00062869532460
C          -0.42491890767456    0.79735524961953   -0.00141756792794
C           0.88617772720568    0.26963600914828    0.00434959041546
N           0.86953467651490   -1.03930759688107    0.00979976466151
N          -0.42298458723425   -1.38846215556859    0.00739192759690
C          -0.80682868719106   -2.69429308136708    0.01371166039626
S           0.35007027356761   -3.99294585528895    0.02515861282923
C          -1.08842599278480   -5.04378092938390    0.02914492271181
N          -2.20018668140509   -4.37189212340987    0.02195120744113
N          -2.05308781289868   -3.07584350544108    0.01342850357717
N          -0.87208092013548   -6.36943929815255    0.04397615670593
N          -1.90284161722701   -7.13365923975103    0.04438733187723
C          -1.66401672097179   -8.45968828560776    0.06483487909986
C          -0.52773806019706   -9.28430838006351    0.08681729653692
C          -1.03736664741412  -10.57621291247493    0.10134413571231
N          -2.36778188807600  -10.57046963448251    0.08989894025658
N          -2.73124364171206   -9.30861846795627    0.06799753234232
H          -3.70350593840413   -9.04005809633178    0.05608331987153
H          -2.30592387507009   -0.41351330386054   -0.00187567189156
H          -0.70802276796406    1.82921236784087   -0.00623925664119
H           1.81776836558416    0.79896448930360    0.00497536158506
H           0.49293778879342   -8.96461605440392    0.09072987251138
H          -0.50705277119143  -11.50735074981486    0.11966278500751
