30
         -59.949456237300          0.000833776841
C          -1.19483827614125   -0.36325208181522    0.02301792681248
C          -0.48331200853088    0.84558210370419    0.04375224290239
C           0.86628251701597    0.66076113674185    0.09252261701665
S           1.30114438569793   -0.99564726070905    0.11424340891142
C          -0.36958564725711   -1.46366935185808    0.05649979547891
C          -0.77063666712655   -2.82810657870060    0.04671942370520
S           0.35199738857174   -4.17251884933246    0.08755212034779
C          -1.09599713835429   -5.19177795708065    0.03951212728128
N          -2.19572482135598   -4.49396050894195    0.00177838796083
N          -2.02131645384092   -3.20561571458720    0.00564180654919
N          -0.90554889548268   -6.51909181027923    0.05202546405862
N          -1.96289112080351   -7.25344341381821    0.00489065408210
C          -1.76994438044282   -8.57910994107159    0.02016350643703
C          -0.65291146838313   -9.41984214622008    0.07089216251224
N          -1.03716016672033  -10.70191754446950    0.05749600053968
C          -2.35064347177050  -10.69258578601675    0.00078833542146
N          -2.86005129847061   -9.44065821106198   -0.02495779318946
C          -4.19585521083122   -9.09062074421527   -0.08260755802328
C          -4.81526306500194   -7.87255234227387   -0.11289939480746
C          -6.20001453281524   -8.16132899335348   -0.17031500120494
C          -6.31208900521389   -9.51653305602362   -0.17019079425613
O          -5.09605129409977  -10.09529577776061   -0.11703842069501
H          -2.26450400385738   -0.45066651689036   -0.01479736799373
H          -0.94843273989466    1.81449935913760    0.02342936220478
H           1.63631397680098    1.40633729836024    0.11711873745593
H           0.37826537949990   -9.13268045021205    0.11391394164874
H          -2.96516553262219  -11.57017438245833   -0.02313974010271
H          -4.33608941627090   -6.91602362422312   -0.09587099158232
H          -6.99864049292946   -7.44999557387400   -0.20648194415383
H          -7.15880653936918  -10.17192128069609   -0.20342901531783
