23
         -50.912586287247          0.000625687755
C          -1.23071506025157   -0.28618258343582    0.00193546120993
C          -0.40754100401550    0.80285148708952   -0.00189650314385
C           0.90142799857886    0.26825831472502   -0.00002707342475
N           0.87831442870786   -1.04025564083559    0.00443386697356
N          -0.41623264865911   -1.38301181431494    0.00566070161258
C          -0.80697664017876   -2.68580257971004    0.01205015353725
S           0.33989829125243   -3.99241056990003    0.01869250271757
C          -1.10709708453902   -5.03273588163265    0.02588371054875
N          -2.21373407290093   -4.35171288908506    0.02279742816193
N          -2.05719302293721   -3.05902968752822    0.01523238391637
N          -0.89980206877528   -6.35867494767649    0.03843720074096
N          -1.93415417227776   -7.11688527542279    0.04058018032192
C          -1.70145546847708   -8.44185264568089    0.05837013459820
C          -0.59200078615649   -9.29034508612597    0.07629949122185
N          -0.98138269187988  -10.57432559542624    0.09087463488754
C          -2.29531053168254  -10.57418417217201    0.08297388431751
N          -2.76265375073163   -9.31953452016861    0.06340181545790
F          -4.07310555756546   -8.96792954016787    0.05100765811665
H          -2.29458239883892   -0.39820903228293    0.00243330834156
H          -0.68507998755477    1.83619442037569   -0.00533658170414
H           1.83552277464915    0.79312399757950   -0.00180607585131
H           0.44254236934727   -9.01233610848238    0.07866438110712
H          -2.91905891511365  -11.44497964972116    0.09097733633488
