30
         -60.433161585216          0.000889320762
C           0.87760794033292   -0.84614452114766    0.06784600793170
N           0.73107367382276    0.49274378208630    0.06208690400954
C          -0.55825411927435    0.71763097850357    0.03750183987486
N          -1.27022921340936   -0.42628894431797    0.02653874654704
H          -2.26950049823880   -0.55234089834827    0.00827893932591
C          -0.36377986446517   -1.45783149041268    0.04561975585473
C          -0.76212755047692   -2.82199611548611    0.04079133055127
S           0.36574784173135   -4.15468917364389    0.05765432371596
C          -1.08257737309489   -5.18250962486429    0.03510278723728
N          -2.18485643357074   -4.49161912318081    0.02098786758628
N          -2.01417123132026   -3.19939352533608    0.02406701080397
N          -0.88705078926478   -6.50972556470805    0.04962924583624
N          -1.94315685001024   -7.24563675872063    0.00559683889244
C          -1.75159087571398   -8.57108368431394    0.02913776630782
C          -0.63529012433779   -9.41344243541382    0.07645325605956
N          -1.02160950823393  -10.69470101745925    0.07005419823738
C          -2.33554370479552  -10.68377951471695    0.02173706318056
N          -2.84329724823372   -9.43140700395842   -0.00640844782796
C          -4.17908302999941   -9.07962029576011   -0.05522279017126
C          -4.79655974818439   -7.86040081775845   -0.08016776496687
C          -6.18210697955278   -8.14655928481718   -0.12832901028949
C          -6.29655514263846   -9.50157557903630   -0.12846271387269
O          -5.08129776150630  -10.08243778802584   -0.08403979850682
H           1.84494676348845   -1.30607349153243    0.08741125789075
H          -1.00301851401313    1.69249710606071    0.02698560346255
H           0.39648011942584   -9.12729434634800    0.11067941291504
H          -2.95087716077034  -11.56091221775272    0.00572700253021
H          -4.31545121121113   -6.90481472875368   -0.06564618684460
H          -6.98008864378613   -7.43408540726061   -0.15834964514301
H          -7.14476276269867  -10.15527851357669   -0.15630080112835
