24
         -51.634602418479          0.000635475245
C          -1.26743362871887   -0.23091941809039    0.00188252223608
C          -0.37490564309531    0.85534711428798   -0.00132049338399
C           0.87992654066143    0.31297934470810    0.00117177393214
O           0.82548762252494   -1.02157176990896    0.00567247880098
C          -0.48179314959025   -1.36564518885427    0.00617243574831
C          -0.86327802609149   -2.73507514381499    0.01235106779702
S           0.28090477888358   -4.05178350020386    0.02035798542508
C          -1.15721448105220   -5.09777326126092    0.02659168172640
N          -2.26669470946877   -4.41406446718772    0.02217225527075
N          -2.11359721599329   -3.12903761266242    0.01447539228467
N          -0.94944877567340   -6.42059667065830    0.03920701712908
N          -1.98753038950121   -7.17790467846369    0.04241342863344
C          -1.75452095964179   -8.50252974688838    0.06030193834944
C          -0.63867296219615   -9.33223009948870    0.07867870466096
N          -1.01572392053343  -10.62652838042712    0.09395674278535
C          -2.31720283248607  -10.63931945807501    0.08597059850905
N          -2.84218340739770   -9.37716663176908    0.06533900876241
C          -4.13154806239044   -9.05642099892886    0.05295659841383
N          -5.25171429124824   -8.83063822800840    0.04334813239564
H          -2.33689299875036   -0.21331729779401    0.00133161396231
H          -0.62452825125515    1.89615526108317   -0.00483022020117
H           1.85259531893776    0.76452241849989    0.00023111458468
H           0.39250655401733   -9.04222662861263    0.08118818905351
H          -2.92798710994095  -11.52056495748141    0.09433003312404
