30
         -59.122983872151          0.000973290678
C          -1.18282889161602   -0.42542128132898   -0.29069028604886
C          -0.53942094535655    0.80509804675881   -0.09027984831570
C           0.71662136631307    0.66458585207253    0.42075715508906
S           1.14402850157066   -0.97608146526260    0.66916873204030
C          -0.40109427751933   -1.49735060406190    0.07374589535430
C          -0.76071707086261   -2.87100759891622   -0.00232334063205
S           0.28047491635564   -4.18507002916390    0.52922638612367
C          -1.05910446253644   -5.23822549039229    0.05476887534374
N          -2.06960767423681   -4.57594162505161   -0.44319061304529
N          -1.90182992212298   -3.28605611601256   -0.47695502041767
N          -0.86949641550351   -6.56064083478154    0.07632982213460
N          -1.89927431791053   -7.31878875522758    0.12377823709025
C          -1.71076368962037   -8.63889682777989   -0.00746687421015
C          -0.59710594364148   -9.47432919747983   -0.13828468838791
N          -0.98223405889813  -10.75558783494932   -0.17185003275481
C          -2.29302001636354  -10.74747371107269   -0.07476919980095
N          -2.80267242535437   -9.50122753550077    0.03266470889578
C          -4.13844317551160   -9.15415533469602    0.13424556705236
C          -4.70569031090988   -7.92066452559301   -0.00266455998921
C          -6.10586250265031   -7.95875372142303    0.16681227104794
C          -6.57878720444214   -9.20407858900450    0.42344141915838
S          -5.32698845876024  -10.38132791921518    0.47087359294409
H          -2.17506208169868   -0.54810850077898   -0.68318621978554
H          -0.98596101680497    1.75709123080488   -0.31403314241529
H           1.42170318119238    1.43359922625251    0.66759940170508
H           0.43317060590946   -9.18527461722821   -0.19065768796579
H          -2.90468701785402  -11.62845076838704   -0.07982049084656
H          -4.13934005161319   -7.03188165815307   -0.21037484601562
H          -6.73194088978292   -7.08831917579726    0.09593918833211
H          -7.59075574977039   -9.51561063863182    0.58882559831865
