19
         -41.423808433344          0.000456264416
N           1.43454113640391   -0.01029136390535   -0.04430471104829
C           2.77130817479184   -0.02528014580300   -0.07042241652509
S           3.74245687395659    1.43152132197655   -0.06996801130451
C           5.13872841161583    0.30107913979588   -0.08214190924178
N           4.76023309204493   -0.93751051271840   -0.08627025211877
N           3.47414088678964   -1.13099225866631   -0.08060999522597
N           6.35188173041211    0.85620072830848   -0.08567025581006
N           7.37142396597192    0.07353603680197   -0.09107346187143
C           8.57480314403040    0.67941895071196   -0.09319076244934
C           9.04580540769951    1.98603232331330   -0.08964248740641
N          10.39550010687580    2.00003131497106   -0.09267108810095
C          10.78376333214247    0.75886022911505   -0.09796109072595
N           9.72580033566119   -0.10931319387151   -0.09861102027443
C           9.79233969861495   -1.43549147691891   -0.10382862122135
N           9.90062839916194   -2.57332097558335   -0.10843713493469
H           0.92759811135094    0.85324763098048   -0.10060524986707
H           0.94771775389343   -0.88799399218768   -0.09385677492563
H           8.47067910965450    2.88959276007394   -0.08501278519120
H          11.80347032892809    0.42773348360584   -0.10140197175708
