16
         -37.615705293960          0.000779841911
H           1.05886254783548   -0.29055578688497   -0.03062819137100
C           2.10701857008834   -0.06765715736870   -0.03303447546166
S           2.70350286942292    1.55054921478840   -0.03541321265717
C           4.30982401840531    0.78905646965713   -0.03942352003058
N           4.23952931556899   -0.50699874836763   -0.03884637479838
N           3.02150968234014   -0.97890238872853   -0.03553263131515
N           5.37076124589639    1.61580610697153   -0.04114705762773
N           6.53318810137286    1.07822789231814   -0.04751976225382
C           7.58025806177885    1.92254645413448   -0.04801332561819
C           7.78304852225946    3.30495726507087   -0.04470888104377
N           9.09394672744114    3.58783258300233   -0.04828409623523
C           9.73195797688683    2.43870710178070   -0.05359996178866
N           8.86284768391135    1.42073861138947   -0.05378594219906
F           9.19205098764249    0.10526676737612   -0.05844228312667
H           7.03760558421669    4.07443636019770   -0.04029617796211
H          10.79626810493277    2.31713925466297   -0.05734410651082
