30
         -59.948623118556          0.000878738443
C          -1.31874713457945   -0.27324592340760    0.01717961246212
C          -0.42365078699919    0.81287830821093    0.03045083859298
C           0.82913979105208    0.26942441656211    0.05238323374516
O           0.77143353352643   -1.06561095728214    0.05370669141748
C          -0.53584567569072   -1.40742459488504    0.03222062564708
C          -0.90364779822534   -2.78281770797859    0.02881322565853
S           0.27529214097770   -4.07345459050281    0.05286614611006
C          -1.13186323715787   -5.15162623336012    0.03176257570928
N          -2.26041449276555   -4.50090396335299    0.00981674692443
N          -2.13962975989357   -3.20505375049621    0.00812240539578
N          -0.88957025217029   -6.47161416298297    0.03849262291620
N          -1.92247340744291   -7.24033110946856    0.02867190018923
C          -1.69471841318102   -8.55948652464715    0.03438622541124
C          -0.54812115316638   -9.36183907548806    0.05247595376934
N          -0.88840103653235  -10.65565973720637    0.05237642812633
C          -2.20272115424707  -10.68799610173995    0.03472139538015
N          -2.75909141162546   -9.45707328748802    0.02322300503908
C          -4.11055332527654   -9.16075087458235    0.00390276612351
C          -4.71096744754906   -7.93530200356873   -0.01208699637189
C          -6.11832390649805   -8.03420108927789   -0.02935774910546
C          -6.56416955359723   -9.31570274501575   -0.02644736259668
S          -5.27694783257268  -10.45481123419648   -0.00231322504674
H          -2.38786607905596   -0.25105285455073   -0.00079325817999
H          -0.67151893679411    1.85409563142278    0.02464428983322
H           1.80316364183039    0.71750593422899    0.06802429459802
H           0.47290855746398   -9.03789677967250    0.06558703977300
H          -2.78316206071370  -11.58996107914710    0.02979706905975
H          -4.16134912598509   -7.01208186998033   -0.01109348158130
H          -6.76871564171928   -7.17893374500823   -0.04345803085959
H          -7.57394804141141   -9.67426229513822   -0.03698498814037
