25
         -50.526412348280          0.000666143382
C          -1.36432774527233   -0.33453649320563   -0.03078868657653
C          -0.50626859487324    0.78094559874974   -0.01940297639063
C           0.76383807486365    0.27985192442959    0.01116529793209
O           0.75089648527141   -1.05687266027032    0.02013481421150
C          -0.54411569423396   -1.44186700234702   -0.00561770498530
C          -0.87634161418341   -2.82659740448585   -0.00055552520969
S           0.32641072928824   -4.09544079016143    0.06806536070986
C          -1.05839862412736   -5.19829066462312    0.03148063742695
N          -2.19870975782530   -4.57107574239261   -0.02710846493450
N          -2.10215255779973   -3.27271915626177   -0.04413925714734
N          -0.80259383588427   -6.51755732245122    0.05807859153614
N          -1.83368732555062   -7.28752360188169    0.04795405459107
C          -1.64608968673970   -8.61052444848648    0.05058115086035
C          -0.59215109880160   -9.53618640428159    0.04507568414277
N          -1.07723832144631  -10.77675451405383    0.00654930616641
C          -2.39812533351897  -10.66750769960437    0.00103178526634
N          -2.79270144046877   -9.39132129555279    0.02486580875959
N          -4.07020299053029   -8.87618550399358    0.10691037758833
H          -2.43355120494227   -0.34869225210345   -0.05323403766707
H          -0.78999858197473    1.81298598793954   -0.03152488574730
H           1.72213504168824    0.76076894903515    0.02779623878480
H           0.45972979959541   -9.33578405080778    0.06843941154180
H          -3.07456197787423  -11.49800620548228   -0.03388814650188
H          -4.64280996129964   -9.15997127227771   -0.68395059639112
H          -3.97963378336025   -7.85918797542978    0.13684176203338
