25
         -49.736669261341          0.000470060797
N           1.55870984149929   -0.02703763816314    0.12841753802180
C           2.90065478877744   -0.00687835392760    0.06481416501900
S           3.82521133297528    1.48424670685642    0.08020605789666
C           5.25242071446471    0.40583893835033    0.05077058797143
N           4.92250541142590   -0.84554073094297    0.03094565942678
N           3.63537409954364   -1.08402498609316    0.03621510237410
N           6.45493101838020    0.99590847795360    0.04618708730866
N           7.47681849216372    0.21276954790442    0.03743386570054
C           8.68532165561820    0.79404395522043    0.02841019520811
C           9.14526539487509    2.11342709142306    0.02597409777601
N          10.48486745216735    2.13780697485265    0.01698542213117
C          10.87252371623580    0.88298544918873    0.01362912749151
N           9.83746490826943    0.01289247613013    0.02010482923253
C           9.91877548449094   -1.36827726080897    0.01870256123358
C           8.90298490242883   -2.27921647875855    0.01858160918312
C           9.38016567756065   -3.60725881127577    0.01691338908180
C          10.73427310841658   -3.68871254391290    0.01569995763305
S          11.48097239770233   -2.13972682054243    0.01664030046680
H           1.04294108047175    0.81706565785721   -0.04376552760733
H           1.10413711925512   -0.91114657908691   -0.02432162998582
H           8.55718406560592    3.00875009194246    0.03072515675537
H          11.89757973505193    0.56749546442494    0.00652518670011
H           7.86556487308601   -1.99989042825508    0.01997311590526
H           8.73344677718797   -4.46550065808457    0.01659638275474
H          11.35389595234570   -4.56301954225226    0.01428576232103
