26
         -49.950343423620          0.000928864513
C           0.74041644213395   -0.82301400857452   -0.59707101222072
N           0.63872977439737    0.51146369724126   -0.43552432397380
C          -0.51102961242706    0.71990437267140    0.15339890253555
N          -1.17463249874216   -0.43022472907328    0.38642647489388
H          -2.07135549634724   -0.57071652848066    0.82331799020955
C          -0.38452495257241   -1.44737889133731   -0.09012226132442
C          -0.77836738742677   -2.81073608312335   -0.00345779135081
S           0.19656364650892   -4.14108496977503   -0.59870155901309
C          -1.14293668281171   -5.16793705452372   -0.04149383533088
N          -2.10545319182898   -4.48247894044851    0.51208664817852
N          -1.89911743084836   -3.19401244941237    0.53860674064054
N          -0.96726646116095   -6.48851112934809   -0.02996242135166
N          -1.97107055900409   -7.27297379982608   -0.09402224298267
C          -1.76393397639236   -8.57810762867059    0.14602598413903
C          -0.68642984917456   -9.37735424848966    0.54547698541611
N          -1.08141173328229  -10.64995935867895    0.65524350763964
C          -2.36271112671558  -10.66315214358609    0.34054623626439
N          -2.83056005826847   -9.44833640356994    0.02467139215467
C          -4.16428178369953   -9.07629675640533   -0.35447701391807
H           1.59769278713494   -1.26911556566512   -1.05927123265365
H          -0.88829533693490    1.68577641720580    0.42362353253721
H           0.32143706376981   -9.07368864804110    0.74472998053324
H          -2.96937729242000  -11.54776305952998    0.33787771274346
H          -4.45896867940674   -9.59493804719792   -1.26725904266051
H          -4.17522247679729   -8.00105507342649   -0.52282639258551
H          -4.86793312768304   -9.32791896993586    0.44021704147989
