24
         -51.292285531727          0.000825716701
C           0.91240942397544   -0.80427198181660   -0.00220780998801
N           0.77826410175348    0.53408342036583   -0.00924838965720
C          -0.51016600410038    0.77202910933338   -0.00840716523916
N          -1.23310975001953   -0.36363202856668   -0.00107079594642
H          -2.23386526039653   -0.48184971285967    0.00126840552469
C          -0.33667060663106   -1.40460259345942    0.00309379560940
C          -0.75358879844706   -2.76131168330964    0.01227610076958
S           0.33954463203854   -4.11558270685839    0.01860122770287
C          -1.13903732425121   -5.11226812256911    0.02950658119067
N          -2.22091534870615   -4.39056713428563    0.02737863275024
N          -2.01921721308490   -3.10960300995343    0.01806000528354
N          -0.96738000375462   -6.43939368799484    0.04164709855589
N          -2.01928499069225   -7.17661460188769    0.04789679863985
C          -1.80289171037918   -8.50472430571869    0.06429065885764
C          -0.69340428807161   -9.34304681430219    0.07936536929416
N          -1.08073150495374  -10.63409749144260    0.09461454352275
C          -2.38220799378837  -10.63656826887324    0.08971602012734
N          -2.89743092131388   -9.37012030426707    0.07140469446884
C          -4.18421855787431   -9.03886352177366    0.06234997899464
N          -5.30177564790295   -8.80026095376651    0.05490419612981
H           1.87567106587796   -1.27333193219870   -0.00116634729738
H          -0.94421575562013    1.75182290369255   -0.01290078063533
H           0.34006637370437   -9.06125210745982    0.07972693655019
H          -2.99945391736188  -11.51326247002816    0.09880024479140
