23
         -50.932827215036          0.000451121768
C           0.90301548142685   -0.80414733990464   -0.00122541200760
N           0.76355087713385    0.53430080261256   -0.00919395181260
C          -0.52547200717520    0.76675150052886   -0.00983648417774
N          -1.24381038003758   -0.37234039780417   -0.00258089433706
H          -2.24405181442849   -0.49393297504561   -0.00118635238971
C          -0.34306399528227   -1.40914676618045    0.00311538078113
C          -0.75237175525847   -2.76859412916982    0.01266488036692
S           0.35270348141962   -4.11481802777157    0.01994821751071
C          -1.11657381099583   -5.12325573045454    0.03002501627381
N          -2.20454194751276   -4.41154387836040    0.02755577983601
N          -2.01379896431609   -3.12742454417076    0.01820427722032
N          -0.93176168871794   -6.44958871349680    0.04459401067425
N          -1.97474542620486   -7.19730174680713    0.04529182524306
C          -1.74582965042742   -8.52357402890103    0.06574787365211
C          -0.63497559320714   -9.36935027526694    0.08710477309025
N          -1.02197097231354  -10.65459189132843    0.10230062439274
C          -2.33523364701902  -10.65697909371636    0.09148538461085
N          -2.80528547096524   -9.40241981283886    0.06940734726010
F          -4.11740831121153   -9.05425778806007    0.05373519053914
H           1.86810593909597   -1.26930646747722    0.00116017163093
H          -0.96404783364938    1.74448686859502   -0.01536463785685
H           0.39906709847788   -9.08948044081400    0.09131564781811
H          -2.95814960883140  -11.52824512416766    0.09905133168112
