24
         -50.808531200666          0.000708375915
C          -1.15807603733341   -0.32173596427239   -0.00137522971492
C          -0.42961357027678    0.87559159090249   -0.00443763044973
C           0.91920932137514    0.67049845304459   -0.00165374690296
S           1.33176775687037   -0.99025466544471    0.00467720815815
C          -0.34694384338411   -1.43523880313355    0.00377627445021
C          -0.77296203489344   -2.78998950402925    0.00938918702262
S           0.31336913736002   -4.15858749077626    0.01673739038101
C          -1.16694904035603   -5.14480235056678    0.02171739911024
N          -2.24567773636684   -4.41377807266608    0.01773890973571
N          -2.03828051242610   -3.13702195299930    0.01111353720216
N          -1.00159714282093   -6.47115770614973    0.03359500679798
N          -2.05335270252077   -7.20968061036560    0.03394628837516
C          -1.83007195630750   -8.53713244128314    0.05138237062809
C          -0.71466070861508   -9.36713358791189    0.07077435692449
N          -1.09219471435529  -10.66142119522491    0.08404469139612
C          -2.39340861645900  -10.67343841308365    0.07389367464868
N          -2.91804993260013   -9.41050033333361    0.05365901454236
C          -4.20755725720636   -9.09066811956691    0.03949398249454
N          -5.32798949108963   -8.86611887973543    0.02892207196279
H          -2.22950815464744   -0.39543558782791   -0.00265266533258
H          -0.88052494612404    1.85131757261362   -0.00840326140367
H           1.69970063896827    1.40565820608804   -0.00289537385121
H           0.31641661969994   -9.07673821591620    0.07517830684168
H          -3.00467507649083  -11.55432192836145    0.08030823698308
