21
         -45.220346274450          0.000833248086
C           1.49522666329897   -0.20982523142095    0.30705019156756
O           2.88027580366236   -0.22297801577610   -0.01695414092147
C           3.29905327050015   -1.26888586417334   -0.69233989812400
S           4.99342007957507   -1.40241732575938   -1.11813585453710
C           4.50627392835893   -2.95433711708052   -1.85463852270673
N           3.23403650523655   -3.18505076981856   -1.74295325076385
N           2.56439109887629   -2.25249588789041   -1.11101447046262
N           5.41142178972695   -3.60516121318283   -2.58822341444207
N           5.28813608828512   -4.85881564174154   -2.78380476885816
C           6.10438589388159   -5.41154967435892   -3.70195071608585
C           6.95081203052235   -4.94295542408676   -4.69975816946690
N           7.46402484992939   -5.97318635804691   -5.40204491328628
C           6.97555969725342   -7.06211784299300   -4.88409877196750
N           6.12732747696503   -6.79932675301707   -3.84366844727485
C           5.47435876176932   -7.69422841885666   -3.10998619285331
N           4.93838360284911   -8.49566479127620   -2.49636756406783
H           1.32514885908575    0.72479872177093    0.83588955089140
H           1.24432786172487   -1.06226540461089    0.94070578954527
H           0.89233396708261   -0.25554547996789   -0.60144132196690
H           7.18766731582896   -3.92448834848615   -4.93241494952577
H           7.19566445558647   -8.05786315922873   -5.21516016469277
