26
         -49.929091076975          0.000320956318
C          -1.27552945890306   -0.33429400151901    0.00649200175145
C          -0.45866313769468    0.76080659985534   -0.00408311426626
C           0.85205813573642    0.23432597500599   -0.00393360432633
N           0.83591679031619   -1.07519920226374    0.00512597838329
N          -0.45562037490613   -1.42483102748526    0.01171700149094
C          -0.83801318372311   -2.73254286727665    0.02320849302886
S           0.32401786594240   -4.02814049408465    0.01251019271819
C          -1.11001631177545   -5.08336703807525    0.03524254134029
N          -2.22469955855929   -4.41641697542317    0.05031142349601
N          -2.08137400492312   -3.11684671170209    0.04383694194637
N          -0.88571741945865   -6.40696541404613    0.05296531423554
N          -1.91836612087186   -7.17386172023893    0.03154077650852
C          -1.68972885004078   -8.49483282221268    0.06182958731956
C          -0.56470236971842   -9.33026679565890    0.09308259782703
N          -0.94945165764637  -10.61004000059888    0.10156826507738
C          -2.26975994415620  -10.59391880332873    0.07858290991215
N          -2.77232299621250   -9.35380908219070    0.05236664674964
C          -4.14655160813843   -8.94372983391922    0.02615263427468
H          -2.33879215189905   -0.45205371094861    0.01037167960517
H          -0.74322065640109    1.79230198595694   -0.01086133909760
H           1.78364579639789    0.76365246703761   -0.00999454054149
H           0.46729326099557   -9.04313762292689    0.10481476677355
H          -2.87745412726530  -11.47801387784758    0.08025297237760
H          -4.78605409523469   -9.82415930094666    0.01953870603328
H          -4.33558479751316   -8.34117132391679   -0.86282322915775
H          -4.36728902434714   -8.33236840124524    0.90184439654002
