23
         -46.291147169565          0.000591666027
C          -1.16380669567016   -0.33065670532699   -0.00621800522860
C          -0.44920235374198    0.87646449488596   -0.01476254528446
C           0.90082062575233    0.68817711677183   -0.00683251983214
S           1.33212112550827   -0.96931336213024    0.01124319721970
C          -0.34087668112240   -1.43320592875439    0.00804991021885
C          -0.74799714207768   -2.79556764094138    0.01927493639687
S           0.36472997909905   -4.14694342144771    0.03734943474091
C          -1.09349395355387   -5.15705481294883    0.04028804558190
N          -2.18700160951049   -4.44980916900545    0.02864986208475
N          -2.00306035341603   -3.16422606554726    0.01725989971171
N          -0.90902359286507   -6.48481995416390    0.05351788143895
N          -1.96211969552454   -7.22362041079728    0.05614732985567
C          -1.76115277173465   -8.55207136850186    0.06867828168880
C          -0.65902332779092   -9.41335979854794    0.07955548615281
N          -1.07426476054945  -10.68788174353871    0.09009419285589
C          -2.38876182011154  -10.64721117878195    0.08471994201709
N          -2.85683026237858   -9.38825265475932    0.07228141718494
H          -3.81305745180370   -9.07192057243486    0.06641048949420
H          -2.23429507874967   -0.41617987546054   -0.01019915362149
H          -0.91254759065546    1.84638709859641   -0.02614740961489
H           1.67329135725389    1.43154117869004   -0.01044646961854
H           0.38028579415763   -9.15446206126621    0.08072371521842
H          -3.01707374051501  -11.51597316458938    0.09032208133861
