25
         -50.164114690176          0.000920370306
C          -1.33437587405789   -0.37584516410384   -0.02541041497968
C          -0.55063590525501    0.74306556599759   -0.02896464131073
C           0.77531355374902    0.25597898191610   -0.01260461019107
N           0.79810186698150   -1.05343322023297    0.00002829880750
N          -0.48219426092896   -1.44124253049497   -0.00771561070326
C          -0.82820527760023   -2.75877684217815    0.00141559486515
S           0.36655767203737   -4.02584262969120    0.02229030011002
C          -1.03767812548309   -5.11369867191364    0.02247929602860
N          -2.17128575921739   -4.47764888487541    0.00686871461927
N          -2.06139493382642   -3.17433760616621   -0.00430258194270
N          -0.79484501998515   -6.43593192843587    0.04629718736689
N          -1.83140626574947   -7.19831987903203    0.03690502579327
C          -1.64930729505838   -8.52158859186572    0.05541680223633
C          -0.59474070579268   -9.44735955780573    0.07361638437242
N          -1.07947685877122  -10.68759805520290    0.04599732583330
C          -2.40071143250198  -10.57853378273373    0.02556455274179
N          -2.79589433001924   -9.30238708414977    0.02825368412204
N          -4.07326320574278   -8.78666868512635    0.09454649964522
H          -2.39349809928475   -0.52581936982875   -0.03275140242581
H          -0.86606413140883    1.76541908256340   -0.04146506737293
H           1.69042746039929    0.81318033413125   -0.00966338894728
H           0.45639270865861   -9.24446907957628    0.10514999015130
H          -3.07523587832371  -11.41074263330128   -0.00513266941681
H          -4.64497107100815   -9.08912988432215   -0.68907329326325
H          -3.98606883181083   -7.76963988357109    0.10868402386027
