30
         -59.586249882823          0.000882736960
C          -1.27904868457773   -0.35146331589304    0.01448282449938
C          -0.46717429244338    0.74704595839120    0.02820492758363
C           0.84591743281284    0.22647727031324    0.05766102630642
N           0.83540887340160   -1.08289650833167    0.06232068751608
N          -0.45444913137081   -1.43853676475310    0.03586232130274
C          -0.82865593887210   -2.74812143234275    0.03240404968640
S           0.34229978959438   -4.03514840237787    0.06331324086790
C          -1.08134571751501   -5.09896216850563    0.03526269661953
N          -2.20280644238665   -4.44203805317952    0.00778467742559
N          -2.06947570258330   -3.14125859847912    0.00599411783307
N          -0.85293969185634   -6.42283566796737    0.04424434013939
N          -1.89232249110070   -7.18171390046126    0.02538077066410
C          -1.67613494895732   -8.50266264443852    0.03356849564842
C          -0.53417538751518   -9.31219989020811    0.06070300838505
N          -0.88238659570015  -10.60312088647556    0.05748229288502
C          -2.19705648848675  -10.62757467896509    0.02925433418836
N          -2.74599173197349   -9.39370164762733    0.01352744012534
C          -4.09598787805380   -9.08984464301478   -0.01670267488514
C          -4.68933582345424   -7.86064131584632   -0.03505069499859
C          -6.09691806648930   -7.95174518554052   -0.06477610923710
C          -6.54961225620884   -9.23097664480402   -0.06862296757146
S          -5.26930068827358  -10.37698435866212   -0.03594968697196
H          -2.34149890462766   -0.47396732803399   -0.00778089585123
H          -0.75598642102033    1.77730638908263    0.01855007248191
H           1.77483932607856    0.76011561732941    0.07565743670578
H           0.48832171259971   -8.99344057602264    0.08180437804829
H          -2.78239786818185  -11.52628549013581    0.01951251212858
H          -4.13466817446902   -6.94062955639444   -0.02730291748888
H          -6.74271649010177   -7.09313237278587   -0.08255002642203
H          -7.56144131826761   -9.58367320386990   -0.08873967761458
