20
         -40.314306149540          0.000706487731
N           1.43333722848137   -0.03122748336102   -0.13899937886361
C           2.77453293554855    0.02569950564154   -0.06554909325385
S           3.65528882188564    1.54552067040721   -0.05863476058355
C           5.11221876348868    0.50895952190524   -0.02660155527124
N           4.82087988757592   -0.75161042682146   -0.02534519202872
N           3.53983058516139   -1.02820635133019   -0.04488259284321
N           6.29959085755209    1.13133825126194   -0.01185400123517
N           7.34014555686462    0.37582316237709    0.02829611219336
C           8.54661867699687    0.95793957519382    0.02689086002009
C           9.10375142517468    2.24166490791728   -0.01961374413349
N          10.43604775386734    2.15986164801299   -0.02773933336014
C          10.73546543652766    0.87142205749793    0.02531499166424
N           9.63934311134355    0.10579314053958    0.05786458766989
N           9.53905847901766   -1.26577997261188    0.19215778925624
H           0.89438735729144    0.79589436527060    0.04446623842846
H           1.00555886320942   -0.92947759411427    0.00933496303898
H           8.58922051402620    3.18073476566156   -0.04509197731410
H          11.73325496059959    0.48066135213175    0.02675526676628
H           9.98166660305766   -1.75071200917943   -0.58513218012767
H           8.54197218232972   -1.48574908640029    0.22582299997730
