30
         -60.073565656603          0.000457141790
C          -1.35729349694682   -0.38020750814245    0.03546074035129
C          -0.54934923651156    0.72094909635377    0.04225796586674
C           0.76647553734578    0.20536315145880    0.05437715376254
N           0.76110984385642   -1.10370645573495    0.05496312488197
N          -0.52814185923311   -1.46456198442089    0.04336472292345
C          -0.89158017075863   -2.77615540506725    0.04038045850560
S           0.29813782444300   -4.04764057619567    0.04769465578729
C          -1.10824565363317   -5.12849548727728    0.03536436081368
N          -2.24270975802798   -4.48878113386025    0.02975327816014
N          -2.12702417421530   -3.18576498417305    0.03283566466878
N          -0.87084264276030   -6.44949230809346    0.04874793194837
N          -1.90602480189937   -7.21573481287777    0.00540713627845
C          -1.69207568651422   -8.53724056803909    0.03056596817632
C          -0.56034469690413   -9.36220830450728    0.08957329859872
N          -0.92888690060478  -10.64510246686707    0.08235720831071
C          -2.24574869791542  -10.65377496070134    0.02202112474097
N          -2.77236322054003   -9.41327702023966   -0.01262209215344
C          -4.11061999050429   -9.06793351162624   -0.07462738916610
C          -5.25218983275331   -9.83793157039471   -0.12362043329910
N          -6.33357004693226   -9.02862030270574   -0.17485808248987
C          -5.87716447276557   -7.80455942355157   -0.15783473678048
N          -4.52810328269893   -7.76671231573716   -0.09720590110293
H          -3.88247200058337   -6.98166595220487   -0.07105486248471
H          -2.41956055276755   -0.50607732206718    0.02598430821541
H          -0.84167097351035    1.75018381096448    0.03917568945656
H           1.69340525393446    0.74269971890273    0.06258760813086
H           0.46604243082127   -9.05882667793873    0.13323483722464
H          -2.84051094453058  -11.54447090522145    0.00228733348259
H          -5.35562358361939  -10.90342631718506   -0.12527583399633
H          -6.48922421327250   -6.92668750284890   -0.18785523881209
