20
         -44.860960483274          0.000441159900
C           1.34792461170397   -0.21343087339467    0.14375307848122
O           2.75582592938373   -0.23799246721780   -0.05319133768512
C           3.24229623543206   -1.35473215926905   -0.54836079826615
S           4.97020120830983   -1.50663889008921   -0.80467314541536
C           4.56430079016862   -3.14957058217552   -1.37360556506916
N           3.29008148743552   -3.39063655505977   -1.34396068808247
N           2.55719862070894   -2.39738492151524   -0.89755596219196
N           5.53466157294815   -3.87146036648478   -1.94008506794020
N           5.44846746041877   -5.14180998478728   -1.96496630975661
C           6.35354319743785   -5.80068253421333   -2.71525368999822
C           7.34617594128277   -5.48061287705629   -3.64197408173682
N           7.91183603387864   -6.59621031707342   -4.12998799237403
C           7.31729567654694   -7.61156834109813   -3.54706472066170
N           6.37573907734529   -7.17728329021533   -2.69912604368243
F           5.58352211820655   -7.96612594335246   -1.92950180404945
H           1.11986476100012    0.78048742947127    0.52081659308218
H           1.05146232418117   -0.97632230393259    0.86551511361419
H           0.82902938737814   -0.39851673554331   -0.79808485409518
H           7.65180690590142   -4.50540153015160   -3.96314863960586
H           7.53914666033052   -8.64579675684078   -3.71553408456678
