30
         -60.436221652131          0.000543378719
C          -1.40694276730204   -0.33117263914130    0.02383531326735
C          -0.53248377599115    0.77111087877708    0.03437316152419
C           0.73062034968259    0.25115020118372    0.05500974100293
O           0.69814614949072   -1.08458422732704    0.05823314181908
C          -0.60282209122778   -1.45103336709366    0.03928262412769
C          -0.94657967654381   -2.83198538021800    0.03738524161794
S           0.25603291201180   -4.10240670606884    0.05687959248457
C          -1.12799044929479   -5.20221175541065    0.03699680393599
N          -2.27244254577447   -4.57426389168151    0.02064350870160
N          -2.17456154485701   -3.27609444820004    0.02104832959254
N          -0.87720119731943   -6.52017973236149    0.05064533455562
N          -1.91054875437822   -7.29014646492962    0.01251606184541
C          -1.69770023805947   -8.61190682590483    0.03360149799108
C          -0.56981072649682   -9.44134135359318    0.08632547550048
N          -0.94395867270821  -10.72340723786722    0.07948094675574
C          -2.26071495668745  -10.72623199545238    0.02535424093765
N          -2.78200337120025   -9.48316091168740   -0.00531259057208
C          -4.11890613718534   -9.13111855732915   -0.06165262821237
C          -5.26463239178863   -9.89496486899008   -0.10620834336990
N          -6.34206457294583   -9.07978610505579   -0.15314771670011
C          -5.87880169754313   -7.85814807661383   -0.13766989915506
N          -4.52949258245690   -7.82783745351134   -0.08243346904142
H          -3.87783914700645   -7.04719699239037   -0.05859887819732
H          -2.47634160252503   -0.32902443593672    0.00744157715230
H          -0.80003465097374    1.80744849707865    0.02747297492513
H           1.69599721755347    0.71774985829098    0.06847685330293
H           0.45836202926199   -9.14352760419399    0.12600810541225
H          -2.86007019116717  -11.61388857731814    0.00724695009127
H          -5.37403839180006  -10.95988981263518   -0.10755688040752
H          -6.48567652476733   -6.97660001441845   -0.16514707088787
