23
         -46.289838812040          0.000526785151
H           1.16728715696918   -0.43115805759305    0.03536746204199
C           2.20603458057185   -0.16896616021552    0.03794989112918
S           2.73998190689897    1.47591790212278    0.02365522074376
C           4.36992249169639    0.78219989069759    0.03755215293033
N           4.35668922656626   -0.51736262722939    0.05253788150206
N           3.15510154952059   -1.04053029137379    0.05286177663903
N           5.40899553515260    1.63922199143464    0.04007426811192
N           6.57574451094530    1.09779436500217    0.03140555005683
C           7.63155347049991    1.91770786321236    0.03931667454145
C           7.80190128399159    3.30832476015447    0.04564397812814
N           9.10248260776526    3.61455878318333    0.04549453305922
C           9.74883128414693    2.46817660146040    0.04034284630101
N           8.92465424059363    1.39943741224331    0.03568241692877
C           9.29951230532366    0.06704831824354    0.03138129045444
C           8.50240825064636   -1.04112338892231    0.03215902500993
C           9.25401796290587   -2.23500816347436    0.02728471130766
C          10.59440357268777   -2.02284190596574    0.02305678075787
S          10.99118689946211   -0.35078655412943    0.02497958902335
H           7.03592738384640    4.05739114442820    0.04816336515068
H          10.81787943114039    2.38037490679918    0.03973045366674
H           7.42900553565542   -0.99389644261115    0.03610523113011
H           8.80741288735181   -3.21233057201832    0.02706401787349
H          11.38725592566171   -2.74383977544865    0.01918088351202
