18
         -41.064080621377          0.000673646200
N           1.38262497491155   -0.01275845735650    0.08792423721655
C           2.72131945213431   -0.02570702118242    0.04010550210881
S           3.68727441741419    1.43548893549942    0.03982187938047
C           5.08713517171842    0.31053013908712    0.02518285923205
N           4.71445389049034   -0.92872209396338    0.01958759117953
N           3.42682740448641   -1.12735468733640    0.02611617926826
N           6.29914915785982    0.87227615697730    0.01878056187015
N           7.32129673266362    0.09554213402776    0.01981267628922
C           8.52393424332018    0.70419827279383    0.01343523423093
C           9.01199837346480    2.01058307132861    0.00909600650182
N          10.35606478783236    2.01290792016899    0.00839436898565
C          10.73755557404411    0.75706155149569    0.01104737753164
N           9.67138051383045   -0.05541005608568    0.01455861300542
F           9.71816352045409   -1.41318573070600    0.01759087738569
H           0.87918532821489    0.84626091592922   -0.03638818486585
H           0.90206996770091   -0.89001202298019   -0.01296117486360
H           8.44559104219113    2.91967662610647    0.00749426725179
H          11.75122544726843    0.41146434619617    0.01116112829146
