30
         -59.610108886299          0.000363584215
C          -1.34278170868562   -0.46830520016649    0.03109779453538
C          -0.68302426179576    0.76935404169107    0.03241869717796
C           0.67429660847698    0.64170379269138    0.03870857964949
S           1.17977360484031   -0.99401142818320    0.04411554031225
C          -0.47074581120508   -1.53287023016541    0.03769369174616
C          -0.81441646199125   -2.91234167352793    0.03846993414884
S           0.36682725857420   -4.20843279138120    0.04199523237937
C          -1.03249194009271   -5.28499855537333    0.03659084425867
N          -2.16665449171571   -4.63855184630886    0.03505931947669
N          -2.04812224322166   -3.34295320231879    0.03647986521325
N          -0.80841265521002   -6.60830211081745    0.04820791768057
N          -1.86333925805161   -7.34843076672594    0.01213693355519
C          -1.69790318583239   -8.67594799485224    0.03434101253194
C          -0.60432105615686   -9.55012547917707    0.08656276176994
N          -1.03022827093279  -10.81596283920135    0.08046463377180
C          -2.34618092963461  -10.76569536826928    0.02746628372228
N          -2.81682179742879   -9.50276537066152   -0.00329681596189
C          -4.13805779704779   -9.09531041402853   -0.05847734544790
C          -5.31385428733150   -9.81192720012074   -0.10644503805852
N          -6.35761207903170   -8.95388795876477   -0.14968272805078
C          -5.84532178344768   -7.75205305093921   -0.12919419864596
N          -4.49605754080891   -7.77629173209322   -0.07381213093857
H          -3.81528813868156   -7.02095336071345   -0.04818064420006
H          -2.40844325837185   -0.60099647415069    0.02611417605001
H          -1.18903465264689    1.71766772744958    0.02749146428334
H           1.41239545441526    1.41920104958108    0.03988141250155
H           0.43510786771861   -9.29420373773035    0.12506532200390
H          -2.98047471785836  -11.62877807780422    0.01037867854127
H          -5.46554240806018  -10.87165064209531   -0.11251582047122
H          -6.41603005878254   -6.84647910584306   -0.15291537353498
