26
         -49.465166550364          0.000651117746
C          -1.21208847234139   -0.38984489165977    0.00148067589493
C          -0.51192030123086    0.82578559470232   -0.01584648826082
C           0.84006183491577    0.65365013557732   -0.02336994439472
S           1.29099600137981   -0.99902722542107   -0.01029732869172
C          -0.37600533792195   -1.48221051331576    0.00657149023488
C          -0.76898505741439   -2.84922759133943    0.02351233219856
S           0.35754933762111   -4.18992244698165   -0.00009042764037
C          -1.09120847047821   -5.21373287852148    0.03525558423909
N          -2.19102267582106   -4.51775587536607    0.06460966592385
N          -2.01881807884490   -3.22889328808516    0.05801920587869
N          -0.89380509136491   -6.53963029680884    0.05468026551760
N          -1.94197611988641   -7.28601102556970    0.02615789597118
C          -1.73766249703559   -8.61123572646131    0.06294448609043
C          -0.62886848883846   -9.46665609319433    0.09812584584086
N          -1.03740071834887  -10.73977673000575    0.10612250619056
C          -2.35653955681980  -10.69915373972806    0.07989964468804
N          -2.83575181962978   -9.44941208304450    0.05070596070077
C          -4.20207203428963   -9.01399389530581    0.02201837383284
H          -2.28152010136062   -0.48849310566144    0.00960812272940
H          -0.98697486424337    1.79015789488241   -0.02282637802152
H           1.60349429408521    1.40626578158856   -0.03596006973391
H           0.40861448147955   -9.19973251926863    0.11117716450103
H          -2.98144737601732  -11.57115298914095    0.08087033379690
H          -4.85725531139968   -9.88270713602475    0.00855595754727
H          -4.37706969479069   -8.40332607318622   -0.86428147154241
H          -4.41531388140357   -8.40355328265996    0.90026659650860
