30
         -60.775666363966          0.000603869816
C          -1.29835834817986   -0.26352140186456    0.01772843742666
C          -0.39804633308151    0.81769989338125    0.05398769011163
C           0.85095459032719    0.26742300422207    0.10417707879985
O           0.78609358153652   -1.06742866034364    0.10129215747419
C          -0.52219746700736   -1.40206049194207    0.04885618019524
C          -0.89969107415111   -2.77482033315218    0.03465265590797
S           0.26649319347483   -4.07662143705306    0.08438714617978
C          -1.14883477913783   -5.14159414707848    0.02906492642487
N          -2.27081820546708   -4.48077523970633   -0.01816518855106
N          -2.13840710156652   -3.18638646281622   -0.01521746672074
N          -0.92007795485960   -6.46463132401193    0.04305815714810
N          -1.96009731002265   -7.22245452992658    0.00369315233701
C          -1.74805695659777   -8.54445003523474    0.01969335124600
C          -0.62321558769575   -9.37503183513929    0.07247542270117
N          -0.99617168944691  -10.66061910552049    0.06509781793445
C          -2.30983462486241  -10.66349832342128    0.00979970566336
N          -2.83065158934397   -9.41668350469862   -0.02026526222143
C          -4.16958389262415   -9.07729302073586   -0.07882500966442
C          -4.79764278508075   -7.86357095213200   -0.11525113413457
C          -6.18055153694705   -8.16244888626560   -0.17032295467218
C          -6.28308742546219   -9.51820029047089   -0.16310846480243
O          -5.06275875530552  -10.08826358976479   -0.10751691844363
H          -2.36662196388198   -0.23538653002709   -0.02511773430849
H          -0.64045382717316    1.86021478585120    0.04440410942823
H           1.82671345622558    0.71028961386952    0.14340492242013
H           0.40555967514137   -9.07935733007469    0.11398909707383
H          -2.91629726201996  -11.54695297896396   -0.00990784670915
H          -4.32645314740574   -6.90328907547641   -0.10349550016287
H          -6.98344943960462   -7.45629427427046   -0.20978117899513
H          -7.12518543978000  -10.17983353723303   -0.19253734908639
