17
         -37.974709991815          0.000767255103
H           1.09225885178762   -0.28978966000629   -0.05229718718965
C           2.14332756650574   -0.08098371379957   -0.05233441604818
S           2.76176024229074    1.52811877968381   -0.05696523384888
C           4.35807528550843    0.74439995575856   -0.05401148027915
N           4.26923879652600   -0.55112969968142   -0.05006967733630
N           3.04579042254119   -1.00511055171511   -0.04920899782676
N           5.42898395500894    1.55605208674617   -0.05495624773727
N           6.58627553755992    1.00520113124176   -0.05481497173000
C           7.63854796768893    1.84331860431317   -0.05479301623421
C           7.82584383499463    3.22225780806120   -0.05576169023252
N           9.13995047838286    3.51690499994029   -0.05544895039835
C           9.77987987040039    2.38247236542851   -0.05423826741733
N           8.92938874441095    1.31370431994056   -0.05389277908191
C           9.27424426001838    0.02935005032436   -0.05270205235873
N           9.61932926065997   -1.05964940702085   -0.05113361734996
H           7.07322274711727    3.98472319018280   -0.05683630960949
H          10.84683217859804    2.27494974060206   -0.05360510532130
