20
         -40.703032198184          0.000963846193
C           1.26469457453027   -0.29315164331567    0.29997889903786
O           2.67042498931237   -0.29819765573975    0.09311804184368
C           3.17250025529855   -1.42578326984471   -0.36715224074954
S           4.90260601067340   -1.55336822103143   -0.63107585226214
C           4.52502445336049   -3.22163359279520   -1.14054302338244
N           3.25717016874984   -3.48778666177840   -1.09066146191922
N           2.50618398876973   -2.49094191792088   -0.67094843838835
N           5.50359430338038   -3.94576365977916   -1.69174925213383
N           5.44599780704811   -5.21946664491088   -1.65396801989733
C           6.35117254024742   -5.90267874230320   -2.37951818403440
C           7.37130424119035   -5.60045132723132   -3.28472981864292
N           7.94223157923728   -6.73097809276482   -3.72490570901549
C           7.31298181259356   -7.71890297530006   -3.12773542800275
N           6.34601834055681   -7.27958074528394   -2.30647736050017
H           5.71264095456180   -7.81499941780923   -1.73532862825602
H           1.02031938596672    0.70817843513913    0.64646724658784
H           0.98683238735648   -1.03732789162185    1.04828703284029
H           0.74284298362776   -0.51783750135652   -0.63158236418447
H           7.69578330199747   -4.63497525599471   -3.61610406459028
H           7.54245592154154   -8.75556321835812   -3.27690137434999
