23
         -47.117311092970          0.000560596739
C          -1.25536311385074   -0.23955181056698   -0.00644272714563
C          -0.36596992169372    0.85062763720762   -0.00562574440600
C           0.88975770242484    0.31303198298903    0.00732006357556
O           0.83899247889041   -1.02262549551678    0.01468716666421
C          -0.46695629182508   -1.37055199294343    0.00627648678444
C          -0.84230720683199   -2.74369107213821    0.01223923786686
S           0.31619283617485   -4.05214531014624    0.02973447832818
C          -1.10992425751268   -5.10996645576749    0.02668992876450
N          -2.22629466533810   -4.43976939962826    0.01444077535417
N          -2.08520975413612   -3.14789284336910    0.00647190796347
N          -0.89051581348932   -6.43398885911751    0.04257303044826
N          -1.93000428039067   -7.19183837291260    0.03350510672870
C          -1.71462572235702   -8.51735968617264    0.05469871590379
C          -0.60716389811640   -9.37160027486719    0.08439378492987
N          -1.01421350017534  -10.64862295211587    0.09460699633402
C          -2.32911389405191  -10.61671556790526    0.07254260779509
N          -2.80491522370133   -9.36144141378947    0.04771559812332
H          -3.76228478030426   -9.04898083400165    0.02808012217386
H          -2.32474794650831   -0.22441624009860   -0.01495827750570
H          -0.61947296053669    1.89056389928863   -0.01346535987709
H           1.86121637147639    0.76691926433123    0.01250923765923
H           0.43023152211837   -9.10538664163224    0.09753434881481
H          -2.95086768026519  -11.49024756112698    0.07420251472212
