25
         -50.163977698951          0.000689908963
C          -1.33602764783390   -0.42044332948516   -0.01947451810388
C          -0.56962134506833    0.70983736762602    0.02170069042721
C           0.76164459467459    0.24163255994160    0.08085885738678
N           0.80360088981233   -1.06755085912779    0.07683710420113
N          -0.46944622144552   -1.47371753300634    0.01588249019106
C          -0.79931235428658   -2.79593565847286   -0.00422828973072
S           0.40313285751126   -4.05289628497416    0.06855427851765
C          -0.98956301620164   -5.15351317929151   -0.00346385996234
N          -2.12716540062279   -4.52503421770330   -0.07803645247272
N          -2.02740788211116   -3.22140835452384   -0.08013478867661
N          -0.73653328109734   -6.47130346141200   -0.03427564475541
N          -1.76155659011607   -7.24356364006156    0.04016545981730
C          -1.60250764700629   -8.56481913366814   -0.01119000840791
N          -0.55390496786627   -9.38482802547461   -0.08268360121266
C          -1.04529269780888  -10.61627705814263   -0.03129912647880
C          -2.43553485146842  -10.59609164436217    0.05915824403077
N          -2.77554198778871   -9.30007362519675    0.07413292934350
N          -4.03009199690841   -8.74034552751125    0.05520708908158
H          -2.39177751296353   -0.58553209724648   -0.06935589200695
H          -0.89993252253363    1.72759404764972    0.01149459039358
H           1.66760138259124    0.81202296441210    0.12487487001388
H          -0.40183603623091  -11.47309552848883   -0.06114684962081
H          -3.15274243149321  -11.38885895127380    0.11546977599985
H          -4.60620315228017   -9.05672486149454    0.83039764937351
H          -3.90721018145830   -7.72672396871190    0.06790500265091
