24
         -51.291747719416          0.000539524097
C           0.91642416704360   -0.81944687671115   -0.01097115654243
N           0.77386444166941    0.51781277315066   -0.01143306061999
C          -0.51613703943457    0.74774609129033    0.00232989064153
N          -1.23182136915189   -0.39235865228054    0.01191346300231
H          -2.23176236527828   -0.51658278961340    0.02300204700235
C          -0.32915793009637   -1.42782647007514    0.00359087816308
C          -0.73698072404878   -2.78694291080101    0.00914241162061
S           0.35888655016571   -4.13620351665686   -0.00204986788576
C          -1.11573042847641   -5.13986744878636    0.01293250472278
N          -2.20101680505357   -4.41916213191528    0.02441627130605
N          -2.00413335872545   -3.13982465232724    0.02247404264026
N          -0.93291941285791   -6.46217516816151    0.00905262925225
N          -1.97285665054742   -7.21419092539280    0.01812803064269
C          -1.75065256389076   -8.53912523559076    0.00980499453390
N          -0.64765316262138   -9.25419171674629   -0.01213008304019
C          -1.01795388946931  -10.54479796394996   -0.01350187948492
C          -2.38694370318535  -10.65964177931796    0.00809062694191
N          -2.86837691724636   -9.38029647596568    0.02293767950391
C          -4.14290780326620   -9.01082069352128    0.04562896872047
N          -5.24847033981786   -8.72020096164999    0.06598629550975
H           1.88239430141875   -1.28257283292950   -0.02091040359372
H          -0.95620494288532    1.72484892131172    0.00557750548023
H          -0.28556798934838  -11.32729380168579   -0.03005238855345
H          -3.03422206489585  -11.51310478167426    0.01378060003640
