24
         -51.634052272974          0.000558281232
C          -1.26097205946794   -0.24659642707742    0.01527180500691
C          -0.37309244695640    0.84318127294708    0.00654769266526
C           0.88398847875372    0.30559255439694   -0.00557152804694
O           0.83493956414925   -1.02889391833183   -0.00491663425402
C          -0.47071769197749   -1.37856363989092    0.00772594462510
C          -0.84682186690068   -2.74940428470998    0.01060237769595
S           0.29649040352859   -4.06377118140385    0.00000190956671
C          -1.14024540166758   -5.11261548485976    0.01189445805313
N          -2.25119230272664   -4.42733630762113    0.02123073842228
N          -2.09943210201918   -3.14420159784528    0.02044807189008
N          -0.92632402965388   -6.43169136743600    0.00422787313994
N          -1.95618228625128   -7.19808699756383    0.01948207232100
C          -1.72795749976732   -8.52098803874987    0.00710013355980
N          -0.62591872772023   -9.23792289752628   -0.01592428014755
C          -0.99815983489896  -10.52812609986725   -0.01719129563757
C          -2.36723319362092  -10.64136780863611    0.00520884342166
N          -2.84682652210948   -9.36174580715312    0.02114525315053
C          -4.12104690531888   -8.99127586668173    0.04425927981976
N          -5.22759737296995   -8.70437872488216    0.06399763265087
H          -2.33043943898709   -0.23338024539980    0.02563362956738
H          -0.62676440899728    1.88301619668157    0.00882268716065
H           1.85472924426908    0.76123116340322   -0.01513678110087
H          -0.26707515722623  -11.31186281801440   -0.03403672114357
H          -3.01588844146324  -11.49384167377806    0.01088683761351
