27
         -54.359876584063          0.000880616530
C           1.23829604192780   -0.39478143973914   -0.08298568933047
O           2.61735918749211   -0.32733841300391    0.25360064135695
C           3.13482674304510   -1.43031342583776    0.75481622946290
S           4.83220017380097   -1.46987756616351    1.19140034632585
C           4.49701188229791   -3.16007012137455    1.64963883237087
N           3.25527793808996   -3.49387770932921    1.46602732864559
N           2.49767632646371   -2.53522130838014    0.97825652934351
N           5.46213245424650   -3.84343532649893    2.27294022377101
N           5.39070069017069   -5.11995902916464    2.27504736498158
C           6.27053615269576   -5.80876900024386    3.01106032374494
N           7.27932743218272   -5.41585019032065    3.77601039976811
C           7.84841372196090   -6.52498723634842    4.25229122256136
C           7.19013937694174   -7.64801957950421    3.78863584517681
N           6.18474551861496   -7.19843340652694    2.99875666484457
C           5.25300547511575   -7.97115022549840    2.33652806638238
C           4.12811952880023   -7.63704227970577    1.63238487668598
C           3.58349786627702   -8.86689079565686    1.19352300584306
C           4.40603817152044   -9.84311797813674    1.66356501205090
O           5.42734753303997   -9.30993498840141    2.36133942701083
H           0.97867766860639    0.58953793096536   -0.46528469168783
H           0.64253068908278   -0.63599699896453    0.79911209522944
H           1.06841105795406   -1.15974409374845   -0.84270482178588
H           8.69992591745411   -6.47644632681016    4.90176381453152
H           7.35797813025561   -8.69143572058837    3.96000129467801
H           3.75601202864583   -6.64866597840783    1.46341795852435
H           2.69624988745289   -8.99884918374405    0.61007930986999
H           4.38261240586554  -10.91083960886847    1.57751838964400
