25
         -50.224654639553          0.000183360969
N           1.57188910674041   -0.19282881590781    0.03350571943249
C           2.90853909129203   -0.08153939489856   -0.00524841864698
S           3.73040985551413    1.47054114651164    0.02931410669252
C           5.22130338476497    0.49783570203909    0.01627237223809
N           4.98340525593429   -0.77891684027122   -0.01322120567892
N           3.71595188009016   -1.10641747555973   -0.02723283572042
N           6.39208416230264    1.14847254248188    0.03350676013112
N           7.43457403193723    0.39153081869469    0.03909717502998
C           8.64956377413833    0.94550763210054    0.05372254989605
N           9.04834433870973    2.21134991649051    0.05953518022505
C          10.38064162588019    2.18284873424286    0.07651189675242
C          10.84325114047542    0.87835807545147    0.08113747721673
N           9.74654204309477    0.08632342130577    0.06632470319007
C           9.71727327293204   -1.29438679931536    0.06626164814069
C          10.73238693552796   -2.22817292915179    0.08761983967073
N          10.19915752916676   -3.46978789699238    0.07726202131770
C           8.90184928396155   -3.30960292500401    0.05027128246037
N           8.55056630621327   -2.00619964200739    0.04227853357854
H           7.63720386778724   -1.55660872057007    0.02593913727307
H           0.99925514088556    0.61839117849630   -0.11304752139119
H           1.17528786909425   -1.10535801175413   -0.11118280344651
H          10.95419082892262    3.08848701700869    0.08445730509926
H          11.83813302689892    0.48457898692626    0.09334995531923
H          11.79281515051824   -2.08149288501716    0.10997641187214
H           8.19015109721709   -4.10951283529993    0.03585870934798
