20
         -40.314102115238          0.000843850798
N           1.52318016548435   -0.02920917887599    0.20928419658735
C           2.86379681570379    0.03784243778368    0.13051277154647
S           3.73631329945856    1.56079917009404    0.14502437272066
C           5.19935420450153    0.53348911764418    0.08877937652939
N           4.91311610753875   -0.72959575147161    0.06586312130314
N           3.63418834368649   -1.01294127131577    0.08547291167231
N           6.37868636295329    1.16595876360269    0.05916212751010
N           7.42693576968871    0.42076413159598    0.03920628358815
C           8.63441519254811    0.99068159404499    0.01557943601384
N           9.07942748320384    2.24561884348881    0.03333080541476
C          10.40671409873758    2.16523970321968    0.03854879751756
C          10.82584067951718    0.84021364475221    0.01215421161124
N           9.70037229312875    0.10798933064054   -0.00026319597676
N           9.56771506908371   -1.25845224951356   -0.11368685493354
H           0.97886112409239    0.79819989904084    0.04480914949602
H           1.09993308506465   -0.92708789334044    0.04685763880038
H          11.01584557336510    3.04712558349223    0.05807006882137
H          11.80339833861519    0.40408477464522    0.00812645139147
H          10.03268454287330   -1.74902693786200    0.64615340286464
H           8.56597145075509   -1.45706371166590   -0.11626507247857
