25
         -50.526306339061          0.000666030192
C          -1.36161004790373   -0.35394969172217   -0.00373016288732
C          -0.51274251018346    0.76820519706759    0.02568678146039
C           0.76100622742895    0.27681225041504    0.06219714253079
O           0.75861348087790   -1.06008819399839    0.05783294052292
C          -0.53278088451989   -1.45507684947116    0.01729232189821
C          -0.85630021782351   -2.84184649165000    0.00243993792172
S           0.34914860469407   -4.10789176697811    0.06277760659121
C          -1.03222452292372   -5.21521596457772    0.01069924330468
N          -2.17513507743422   -4.58860541281705   -0.05222605810882
N          -2.08122277509626   -3.29062543414100   -0.05782869850962
N          -0.77242758976261   -6.53036333595898   -0.02366852323868
N          -1.79062080118566   -7.30974470030054    0.06957288525955
C          -1.62218767277893   -8.63031860007384    0.01211842687033
N          -0.56872111315420   -9.44134154446179   -0.08211664954089
C          -1.04988623244540  -10.67745053994209   -0.02463858100019
C          -2.43726283933578  -10.66849638540549    0.09295242489087
N          -2.78689546277853   -9.37439866093897    0.11854769085869
N          -4.04707570644019   -8.82501856167886    0.12570263325142
H          -2.43042976403048   -0.37716450426324   -0.03568165794704
H          -0.80434760696890    1.79812914296069    0.02041799388225
H           1.71519327436417    0.76517493759951    0.09178410605942
H          -0.40009990254943  -11.52888066504178   -0.06971816440943
H          -3.14770999204421  -11.46645178408698    0.16065161726716
H          -4.59694691869682   -9.13258301934728    0.92363087411376
H          -3.93035394930876   -7.81057942118758    0.12386386895857
