22
         -44.111648407692          0.000594396310
C           1.51914191375955   -0.50475160257015   -0.25637026814277
O           2.81272223645019   -0.26498515682523    0.27965761600329
C           3.26990724162377   -1.19137073185289    1.09881451600516
S           4.87365690621163   -1.01727381780671    1.78644665870000
C           4.51746529830000   -2.57692547451973    2.57131010564919
N           3.33375820072407   -3.02688608950432    2.28543450131464
N           2.63786724134805   -2.25540040647473    1.47462638097742
N           5.38832742412350   -3.03558663556857    3.47537556814010
N           5.37899702647963   -4.28349338598394    3.75224998732660
C           6.10438373951826   -4.74026918837072    4.77664578600972
N           6.84956676983128   -4.16778385862018    5.72091569877827
C           7.27088194348109   -5.15301436926197    6.50556797859044
C           6.79782813190797   -6.38266908691982    6.05784914633348
N           6.06226059915583   -6.11050624653314    4.96968357286759
N           5.44230470356902   -6.99046438623532    4.11351354584232
H           1.29169545988865    0.35842742976509   -0.87728369029136
H           0.78671178933517   -0.60709926485326    0.54632048596112
H           1.51773385021744   -1.41863220967806   -0.85357913549613
H           7.89371836961710   -4.95757656432353    7.35566355731131
H           6.93112982535954   -7.37487198430333    6.43706101273098
H           4.81049025257529   -7.61820733943628    4.60324467363096
H           4.94449107652306   -6.43336963012320    3.41845230175780
