30
         -59.947930598732          0.000808181805
C          -1.31978534432021   -0.30571633578834    0.00632297743772
C          -0.43684913284885    0.78997118619612   -0.01863168002396
C           0.82139965442402    0.25956147697644   -0.05282058325354
O           0.77808108765017   -1.07593372649171   -0.05111586421408
C          -0.52489374877280   -1.43174905137326   -0.01472637417500
C          -0.88157350136235   -2.80999910328485   -0.00413483592461
S           0.30139322966585   -4.09624732413986   -0.03854048472022
C          -1.09943794164460   -5.18036981858945    0.00168107990733
N          -2.23205222903206   -4.53258220176496    0.03461668438837
N          -2.11684126363916   -3.23742866593664    0.03153888820870
N          -0.85195783534847   -6.49742590266298   -0.00380716997619
N          -1.88174404618116   -7.26865993812757    0.02036370022614
C          -1.67197638328165   -8.58726506651985    0.01688190079256
N          -0.54441335510281   -9.28588458361878   -0.01158937721193
C          -0.89368413394163  -10.57211888728311   -0.00299193549126
C          -2.26930431291068  -10.69972138967370    0.03216102379934
N          -2.77410238678283   -9.44307054004493    0.04490499800849
C          -4.11130284946431   -9.10251123112257    0.07965160394935
C          -4.67866570131264   -7.85968191601340    0.09676084670365
C          -6.08697938536853   -7.91786740950539    0.13275596241067
C          -6.57144234001734   -9.18604172352523    0.14242885180851
S          -5.31940132739584  -10.36075969304578    0.10805186611751
H          -2.38885772307784   -0.29597044274725    0.03565945376853
H          -0.69559351489648    1.82852925453933   -0.01224506007227
H           1.79008824281196    0.71858525149064   -0.07974883034526
H          -0.15569087725589  -11.34930621131879   -0.02204663199525
H          -2.89556724077454  -11.56888417473472    0.04820644502967
H          -4.10274862615551   -6.95286595534589    0.08388866125753
H          -6.71196948009815   -7.04392053164163    0.15061427404625
H          -7.59116753356606   -9.51458534490182    0.16789960954319
