23
         -46.290792505470          0.000923204134
C          -1.13298051505351   -0.34898770266580   -0.29462685540882
C          -0.42854795944297    0.85715963372302   -0.16169938223608
C           0.85511114519921    0.67338108806154    0.25657568325350
S           1.23485292081809   -0.97987800701970    0.49886565707689
C          -0.36950953519272   -1.44692370064256    0.02866036515322
C          -0.78390784380807   -2.80649094340704    0.00118854719741
S           0.25093591631427   -4.15212515431005    0.46706373429392
C          -1.16683307574921   -5.16459453744954    0.12940641816940
N          -2.18943773503270   -4.46618460017521   -0.29882058020386
N          -1.97170331680726   -3.18789951111241   -0.37573009366036
N          -1.00265306672054   -6.47915191275437    0.10573953617624
N          -1.94826173468978   -7.28753107081007    0.36455254811359
C          -1.75503804994915   -8.59215712126470    0.09748103137422
N          -0.76199307609442   -9.23798918593534   -0.49927740874763
C          -1.11215370875556  -10.52638926928662   -0.51586271207361
C          -2.34909117543960  -10.70042657867566    0.07963880890826
N          -2.74690041554077   -9.47012899340596    0.46264218183932
H          -3.60348509467456   -9.21281083074942    0.92536048547690
H          -2.15523356783120   -0.43604143274966   -0.61246299466595
H          -0.85232193900353    1.82335087384735   -0.36842111890146
H           1.60562615796325    1.41682577696929    0.43868705929506
H          -0.47171287301194  -11.26836420126403   -0.95001111581381
H          -2.93481145749795  -11.58164261892346    0.24262020538463
