20
         -44.860450706653          0.000872473306
C           1.58665081789437   -0.61864567675559    0.34784640604063
O           2.78749647372619   -0.12520123436198   -0.23316490222528
C           3.20195378650189   -0.75996362981130   -1.30797239332282
S           4.69375323854485   -0.26507361263146   -2.08572509425942
C           4.35127664066670   -1.61035558916480   -3.20813577202896
N           3.23899213985582   -2.22346930897498   -2.93214241375447
N           2.59785883952282   -1.74665451215047   -1.89168634858374
N           5.10792227600791   -1.72105287027454   -4.29839929385429
N           5.25076337838385   -2.84377295270382   -4.87544955124485
C           5.84564653805190   -2.86200716299612   -6.08165994347572
N           6.19647209967103   -1.90623356949086   -6.92941420030866
C           6.69496317300990   -2.50701345760861   -8.01596715742600
C           6.66968560708635   -3.87980761012183   -7.87212912201231
N           6.12695013212584   -4.07611490205311   -6.65603720000933
F           5.92999761957968   -5.30014256182061   -6.10186387335800
H           1.37911422149657    0.03206917374328    1.19386327195596
H           1.71989642310703   -1.65042181062555    0.67912368860670
H           0.77132483980430   -0.58321713030828   -0.37698613537429
H           7.04587485931475   -1.93316094331658   -8.85040178352416
H           6.97656689564817   -4.68481063857455   -8.50646818184178
