19
         -36.633371431098          0.000970394046
H           1.07891004849027   -0.35932211326273    0.12512559172498
C           2.11155611606780   -0.10873237555531   -0.00744842760152
S           2.87253424059774    1.16594581937509    0.89747846939258
C           4.34181958165818    0.69479111425509    0.01961242697706
N           4.12658594594648   -0.27654622779988   -0.82769845425800
N           2.88800475051984   -0.70614538692162   -0.83700441403895
N           5.41206708418603    1.47779812407389    0.10610759913902
N           6.59188033672754    1.01615410814843    0.03839393068040
C           7.61650823110474    1.87270513041582   -0.09321733241037
N           7.65308637322967    3.19350673237117   -0.24757710693552
C           8.94028798457076    3.51653286718238   -0.35541086069463
C           9.73140900757874    2.38059146210376   -0.26994260568782
N           8.88939481290310    1.34493398556549   -0.10396161672072
C           9.22244127442534   -0.04404750374405    0.02768048735024
H           9.24857075144202    4.53431140159886   -0.48931409598995
H          10.79489386807632    2.25960763219643   -0.31708027723686
H           9.82659905317693   -0.20703419004341    0.92234401076161
H           9.78305611765280   -0.38385349123293   -0.84558711036832
H           8.29278442164593   -0.60547708872620    0.10576978591703
