23
         -46.777339850856          0.000483196486
H           1.24572458752576   -0.67873250525107   -0.08607956914988
C           2.26129057002856   -0.33824726272755   -0.08820635692787
S           2.67106595643744    1.34214690501959   -0.09021908818038
C           4.34226966566215    0.77498725378155   -0.09297548311929
N           4.43132747338328   -0.52609040279813   -0.09225540631862
N           3.27214926747929   -1.13792279961370   -0.08963128848212
N           5.32752228695602    1.69263177633028   -0.09572459246069
N           6.51509844008450    1.19557259844011   -0.09711644529080
C           7.57162949854019    2.00543817830620   -0.10012730799735
N           7.67612478006786    3.33066873289611   -0.10197235331432
C           8.97690034406783    3.60297771602412   -0.10467403019296
C           9.72371627630048    2.43321926847610   -0.10455617528925
N           8.83701585660830    1.41574362738689   -0.10168927214780
C           9.12191177131698    0.06507242616114   -0.10060687426566
C          10.32669344806152   -0.60970890722164   -0.10208064899458
N          10.09468827874941   -1.93924962014490   -0.10030055736956
C           8.79476306304971   -2.08407121411762   -0.09741527706453
N           8.15119585607008   -0.89767051074311   -0.09761563940067
H           7.15752474388347   -0.67854118447391   -0.09603996409648
H           9.33293077669303    4.61410136482432   -0.10653862470379
H          10.78237588398501    2.27738461175854   -0.10626862325413
H          11.32479507276245   -0.22201176973082   -0.10446108281399
H           8.28815610228687   -3.02730828258284   -0.09528533916516
