16
         -33.456700556617          0.000993648656
H           1.05711217661548   -0.46489708925635    0.08146847279164
C           2.10189150468887   -0.22640283605587    0.07606064220619
S           2.67574538836638    1.40049339685638    0.07741479580762
C           4.29264803231579    0.66368694148718    0.06688170283998
N           4.24119051354027   -0.63445401468333    0.06373009537601
N           3.02829860350154   -1.12531303368972    0.06900470094565
N           5.33919201974428    1.50757681272684    0.06181512828233
N           6.50820873037016    0.98200085389417    0.05830469697604
C           7.56478196740679    1.80892784888571    0.05174505593273
N           7.66852891316600    3.13338608973803    0.04896767014087
C           8.97350117322663    3.40522277837621    0.04282292033007
C           9.71454034645310    2.23364459183804    0.04146362668394
N           8.81435479972493    1.23263534085304    0.04725444896390
H           8.98831969832044    0.24029484035627    0.04802461137021
H           9.32893081413863    4.41653117008850    0.03969176745064
H          10.77298531842069    2.07055630858493    0.03696966390219
