25
         -49.736053408367          0.000575289360
N           1.51020863473892    0.03642698845753    0.07968429624987
C           2.85073947942353    0.09315486543902    0.00856257881141
S           3.74564961755153    1.59300610049994    0.18218146841402
C           5.19333686601758    0.55601183010607    0.02731716729308
N           4.88834247279216   -0.69424289972318   -0.13393005430465
N           3.60718394189754   -0.95839040896309   -0.15059797461991
N           6.38202028587373    1.16942800798540    0.02867526815627
N           7.41576662708228    0.40461250667839    0.02423378041277
C           8.62432537926844    0.97327004182404   -0.02481913006778
N           8.98865686353461    2.24744156419491   -0.04152712209789
C          10.32316886620692    2.25991288822470   -0.07754342138530
C          10.81940650292717    0.97236374673026   -0.08730215319705
N           9.74591895125211    0.14445505082169   -0.05250902367742
C           9.77750184421437   -1.23580017997844   -0.06119039258849
C           8.73316887357381   -2.11629483071689   -0.06224324509197
C           9.16676698529073   -3.45801587043747   -0.07571001336692
C          10.51796510360560   -3.58489701256106   -0.08645266164244
S          11.31345510104418   -2.06219554556156   -0.07938597016541
H           0.97543240883810    0.88311645665396    0.00785049977040
H           1.07305527227575   -0.83639467075536   -0.16276405357321
H          10.86956387430732    3.18211500045936   -0.09462204401662
H          11.82520077185255    0.60446498757370   -0.11634058360940
H           7.70531628230493   -1.80447713479640   -0.05489577742437
H           8.49181716403575   -4.29425100500059   -0.07855944766337
H          11.10815183009063   -4.47931047715495   -0.09941199061554
