24
         -50.808008974108          0.000854355379
C          -1.17038091024590   -0.33040180911993    0.01311835332388
C          -0.45201697865252    0.87287370380131    0.00821658175388
C           0.89863243556651    0.67893041659792   -0.00231910440676
S           1.32538564342389   -0.97817337859741   -0.00637161779018
C          -0.34954278807950   -1.43694471829158    0.00626441537737
C          -0.76303103210863   -2.79509294146492    0.00795270698180
S           0.32909547162324   -4.15543142324560    0.00073394996450
C          -1.14438991492367   -5.15160305003709    0.00904565641578
N          -2.22849185247401   -4.42498342377685    0.01503243934229
N          -2.02930286425515   -3.14908870337408    0.01433713370782
N          -0.96566959708916   -6.47357510126112    0.00204729740861
N          -2.00603729853553   -7.22507603593318    0.01582124258025
C          -1.78147426786751   -8.54976729299709    0.00400820759523
N          -0.67605260541856   -9.26102300205496   -0.01640996444241
C          -1.04222799180950  -10.55313371037860   -0.01794247771301
C          -2.41048265417242  -10.67241946922023    0.00166957162169
N          -2.89631801825838   -9.39419069305272    0.01607038900135
C          -4.17293564394742   -9.03151399862938    0.03621006979280
N          -5.28068668175141   -8.74945459088806    0.05395384166077
H          -2.24113866245643   -0.41295651008108    0.02131533733607
H          -0.91098644189706    1.84480443970779    0.01220654342241
H           1.67235967753334    1.42110272378585   -0.00801995022726
H          -0.30723694485616  -11.33324563252635   -0.03291252011953
H          -3.05520007934803  -11.52781579896267    0.00638189741258
