18
         -36.903803739251          0.000646924067
N           1.45942118376147    0.11578026231879   -0.12724593139045
C           2.80123220957372    0.12042620663976   -0.07063359690680
S           3.74586910476868    1.59562306175991   -0.08426597592400
C           5.16176135178696    0.49409011937313   -0.06331115750404
N           4.80863234558525   -0.75154217906763   -0.04579110930360
N           3.52068361576856   -0.97015225892161   -0.04730222190157
N           6.36377444599540    1.07791363210299   -0.06227610500641
N           7.39574336771009    0.31401744313637   -0.06659471524162
C           8.60346770000855    0.90522010259085   -0.06431621365182
N           8.98077908788600    2.17742020210193   -0.05980824553304
C          10.31701109517538    2.16948720543428   -0.06436607543861
C          10.79579131733672    0.87235846787044   -0.07137594449550
N           9.70313213364128    0.08042918402776   -0.07127336149758
H           9.66555321877616   -0.92589414269447   -0.07539677249352
H           0.95276796123059    0.96707051988297    0.03492893291091
H           0.99451134374012   -0.76427266261091    0.01682667953517
H          10.87538890140286    3.08463886534477   -0.06276929799805
H          11.79562961585221    0.48888597071066   -0.07650888815946
