19
         -41.423494669782          0.000380811430
N           1.46129636995495    0.11096748522240   -0.05445377338721
C           2.79769084390130    0.10012991556938   -0.07820017083660
S           3.76818959310462    1.55424160740037   -0.07822174355029
C           5.16598250003675    0.42438128699098   -0.09008070215609
N           4.78468140314540   -0.81588477786171   -0.09378331732723
N           3.50111834959094   -1.00867396501858   -0.08807781246876
N           6.37370885812193    0.98306347039303   -0.09591197019102
N           7.40001583416958    0.21083344341957   -0.09938207520614
C           8.60214399644373    0.81265369661903   -0.10630220257517
N           8.96734333522746    2.07474557607451   -0.11044692112528
C          10.31187910576820    2.09289754192009   -0.11597096778578
C          10.81729114764578    0.81728699952265   -0.11541319433440
N           9.73040021695451   -0.01442712370168   -0.10927123312188
C           9.74663847266743   -1.34064126250625   -0.10701813989921
N           9.79362855123557   -2.48324911940824   -0.10517546721389
H           0.95213914314490    0.97374616710097   -0.10289557003269
H           0.97606665688166   -0.76807655799410   -0.09790037266881
H          10.84890455367766    3.02059001791474   -0.11999728491758
H          11.82083106832763    0.44286559834284   -0.11867708120196
