21
         -45.219917861209          0.000984595796
C           1.65005952874447   -0.45654773090281   -0.34433119640706
O           2.95757831412513   -0.15774757748508    0.12991510531177
C           3.36362005768715   -0.85514099754833    1.16617292084196
S           4.97010620445019   -0.59624578580762    1.81259798894073
C           4.52467679244442   -1.88311062821814    2.96912062671421
N           3.31251583690394   -2.32012871420334    2.78832593333138
N           2.66760656906359   -1.74635683338710    1.80533959119898
N           5.34335555357800   -2.11088864545640    3.99203359879848
N           5.33451174592141   -3.23235000329418    4.59135052398290
C           5.97746034465696   -3.32455034859331    5.76706323516099
N           6.39437225570843   -2.41063343475672    6.61497581810188
C           6.86102865463964   -3.06208097650537    7.69365227652725
C           6.74475843094978   -4.42057524917699    7.53150365248254
N           6.16943480785486   -4.60231421628800    6.30382037012841
C           5.87861041040046   -5.75985644350087    5.72395888004028
N           5.63670791414443   -6.76960503500976    5.24458143243846
H           1.47103432335164    0.23076224800281   -1.16752044041413
H           0.91548208430406   -0.30997052780893    0.44917347877775
H           1.59709719781240   -1.49111693764408   -0.68799149370871
H           7.25475887219262   -2.52401566278199    8.53267163901668
H           7.01220410106581   -5.24345649963387    8.16286605873453
