30
         -59.122507424156          0.000729554071
C          -1.16204974721063   -0.42886849252362    0.37424418458651
C          -0.53618353323209    0.80650229882761    0.14985158615149
C           0.69130206768426    0.67664011559644   -0.42815375007679
S           1.11313287493240   -0.95992780504703   -0.71118161899447
C          -0.39602500243625   -1.49433574864907   -0.03962335223127
C          -0.74554250621066   -2.87020202805132    0.03934520288993
S           0.27198303028128   -4.17576375245109   -0.55306131785686
C          -1.04472096269180   -5.23875690043166   -0.03458697285520
N          -2.03390987930664   -4.58089300392415    0.51667035963168
N          -1.86416439617610   -3.29320231607751    0.56116432017102
N          -0.84979025493450   -6.55569031173988   -0.06826664067351
N          -1.86949387849329   -7.32622836665670   -0.08504525848483
C          -1.68480282204379   -8.64306933123089    0.04987484810407
N          -0.57580815520486   -9.36088836045862    0.16382638866254
C          -0.95608891218296  -10.63820586093178    0.22078096450271
C          -2.33221805488755  -10.73774547771423    0.15034925134877
N          -2.80481135191400   -9.47303127699641    0.04131572568921
C          -4.13062512871760   -9.09494674685421   -0.03616429815302
C          -4.66848842685448   -7.84346781759033    0.06911670344342
C          -6.07205545242056   -7.85419899140158   -0.06440612048053
C          -6.58172229227150   -9.09673418301917   -0.26249043403054
S          -5.36004791966467  -10.30346145635370   -0.29633650379054
H          -2.13135295098639   -0.55960033241339    0.81854509395992
H          -0.97480105984915    1.75460632594428    0.40438600628250
H           1.37786962427824    1.45149427824003   -0.70634067469162
H          -0.23695113090183  -11.42824324234864    0.30849327003046
H          -2.97911575168030  -11.59140835992872    0.17325052024713
H          -4.07709390564038   -6.96212718003769    0.23405576715364
H          -6.67526673096745   -6.96646839326226   -0.01054349201867
H          -7.60496739029452   -9.38899728251423   -0.38970975851664
