23
         -46.290107632928          0.000844054951
H           1.03021510740594   -0.38355832742876    0.17816904788871
C           2.05939630462879   -0.10666193391488    0.07330060382533
S           2.69007394222709    1.36651925302014    0.74188360905008
C           4.24119640611481    0.81205168669669    0.09204906115214
N           4.13865891233096   -0.32275952671008   -0.54539558666540
N           2.92586127795340   -0.81981457740368   -0.55238932526215
N           5.28492400830295    1.64407381809658    0.11651988529663
N           6.46321630854185    1.15882039906629    0.11846193584066
C           7.50741892103106    1.98106565908641   -0.02037742058301
N           7.57502057778086    3.30351774145409   -0.09656733403612
C           8.87006405812008    3.61305635379084   -0.15948078005566
C           9.64399909551971    2.46753739908029   -0.13262143223710
N           8.78568857544832    1.42526058599592   -0.04316132779665
C           9.11855064469178    0.08534739077466   -0.01123855278786
C           8.30609129252471   -0.99860464678710   -0.19045312831155
C           9.01089533455809   -2.21473540161395   -0.08179305053196
C          10.33419963590952   -2.04559475855858    0.17018717727627
S          10.76891874010460   -0.38872055106294    0.28684213893672
H           9.19507055201331    4.63265293746535   -0.22017874657897
H          10.70626546665994    2.33454051536460   -0.17307816973595
H           7.25360661734957   -0.91916211025071   -0.38939433686687
H           8.54589651300879   -3.17712970748743   -0.19207418716242
H          11.09300170777430   -2.79226219867385    0.29349991934513
