27
         -54.021190647103          0.000166675256
C           3.56787554557496   -0.99007293173430    0.59151402299505
O           3.18927217003473    0.26241676237853    0.03543312868778
C           3.61842878518200    1.32818821317990    0.67581103350445
S           3.20478817280146    2.92051203029772    0.07634933745607
C           4.14375578999308    3.50154099292877    1.46536669179280
N           4.63586282885963    2.53774371743132    2.18413754689913
N           4.34654803429837    1.33056189664312    1.74950272518854
N           4.25686117044260    4.82952004623566    1.64696384401649
N           4.95346051718030    5.16670981752243    2.67542654696886
C           5.13529748006434    6.45468485887025    2.96592786708364
N           4.71754620416386    7.57014531637284    2.37812097570039
C           5.19735097524958    8.57717281561305    3.10359257949307
C           5.93612488252127    8.10162481796375    4.17594364085405
N           5.90040890175153    6.75365643524373    4.09386168359687
C           6.49924872050018    5.85127472361277    4.95046981627477
C           7.27161509709521    6.04173822490721    6.07844196220097
N           7.63193875233475    4.84176341060668    6.58232111550202
C           7.10231453669515    3.94134601688374    5.79551608027645
N           6.40168133760345    4.49761507415311    4.78499708350084
H           5.88156672393452    4.07391534724868    4.01919666412243
H           3.14460678679947   -1.74462753983164   -0.06702168293959
H           3.16925565041736   -1.09393323312703    1.60226008375450
H           4.65507016823122   -1.07727243033523    0.62943299237039
H           4.99990211162705    9.59660520465973    2.83721808781462
H           6.45840616293063    8.61921170607496    4.95343668264195
H           7.58181755027471    6.95388042853707    6.54569815866136
H           7.20474494343811    2.88353827766353    5.92641133158148
