23
         -46.753018737937          0.000792601854
C          -1.24175495584272   -0.29371650146982    0.01170163993579
C          -0.42486691493587    0.80087587643435    0.00586416464226
C           0.88615486919497    0.27387592905310   -0.00192323358545
N           0.87010170450880   -1.03526168209553   -0.00068239145926
N          -0.42174673098035   -1.38527756027641    0.00751389915040
C          -0.80569510636818   -2.69217359033869    0.00959801660689
S           0.34832367148495   -3.99261087187969    0.00326370800936
C          -1.09116351574378   -5.04215412999612    0.01017909243143
N          -2.20274220135607   -4.36705889668928    0.01569433773739
N          -2.05352789933967   -3.07087678087434    0.01531442731411
N          -0.86965775260336   -6.36509284038121    0.00329446593303
N          -1.89807793055861   -7.13257091664255    0.01496385023808
C          -1.68493883712386   -8.45769042847380    0.00321431738185
N          -0.57588296317397   -9.18872395036126   -0.01726497753829
C          -0.96891136459441  -10.46302632620632   -0.01970945337281
C          -2.35194311258047  -10.54579849067376   -0.00085255986380
N          -2.79312434899808   -9.27324836416973    0.01378565756590
H          -3.74564649047003   -8.94578265807220    0.02894097314792
H          -2.30494846428574   -0.41152820302009    0.01832617977897
H          -0.70873977412880    1.83260145802807    0.00674708607112
H           1.81752725262244    0.80362573305149   -0.00818812581327
H          -0.25539379653630  -11.26291201105163   -0.03463960827589
H          -3.00646533819084  -11.39339479389461    0.00267853396429
