30
         -60.436224092194          0.000532584104
C          -1.41304418127438   -0.35070207174560   -0.00125734056439
C          -0.54084172924217    0.75347991354614   -0.00989464415948
C           0.72344338725746    0.23597726699729   -0.01885238626520
O           0.69355961311144   -1.09968223034370   -0.01629204706089
C          -0.60661971451981   -1.46911798435046   -0.00557346501258
C          -0.94459220141948   -2.85174897811814   -0.00033744660038
S           0.26313574708483   -4.11608913648302   -0.00185230493654
C          -1.11466087669407   -5.22324282167808    0.01040601435172
N          -2.26369828850032   -4.59904779751310    0.01183157125825
N          -2.17210431296219   -3.30114016676106    0.00558709907464
N          -0.85412591508294   -6.53710751574872    0.00184131111829
N          -1.88177546655132   -7.31408685167025    0.04114423465076
C          -1.68277352363966   -8.63448914982975    0.02278345178859
N          -0.56770240918704   -9.35452111590326   -0.02619558678216
C          -0.94556325388259  -10.63063531418353   -0.01671200171293
C          -2.32630011119826  -10.73244568919662    0.03842795544744
N          -2.80019944338125   -9.46671536651340    0.06396350465512
C          -4.12326139704751   -9.07678698513824    0.11647579870455
C          -5.29005573369604   -9.81195443980547    0.16358747991000
N          -6.34647830564641   -8.97135911624484    0.20399686558293
C          -5.85225004607726   -7.76099921768278    0.18268274651321
N          -4.50315810874626   -7.76403529295247    0.12933864757972
H          -3.82981588669924   -7.00138782774136    0.10256633935903
H          -2.48254707714885   -0.35029233987075    0.00705980314903
H          -0.81044455004458    1.78935346007551   -0.00954207957410
H           1.68795607216700    0.70454569662251   -0.02728509557220
H          -0.22427317104871  -11.42302699790503   -0.04903773654724
H          -2.96778988517966  -11.58862029584204    0.05971058536373
H          -5.42712408824346  -10.87389154320126    0.17090206893394
H          -6.43779514250701   -6.86491009081808    0.20426665734685
