30
         -59.948595692210          0.000936934976
C          -1.19511534157515   -0.38123198499864   -0.00470371767798
C          -0.49163437453439    0.83229688075806   -0.02608014052105
C           0.85954913446730    0.65518300427447   -0.06272006673153
S           1.30456860829582   -0.99874644473416   -0.07189006231870
C          -0.36353779309137   -1.47714349678547   -0.02542379378624
C          -0.75748410851726   -2.84378006194657   -0.01254135477030
S           0.36875749351156   -4.18310798980193   -0.03495990367609
C          -1.07625782387174   -5.20987842334082    0.00316117205149
N          -2.17926043229507   -4.51322603686754    0.02560244732952
N          -2.00956560040654   -3.22531432968440    0.01707506796089
N          -0.87538952959576   -6.53361357437422   -0.00453598676112
N          -1.92311487300573   -7.27972144011601    0.03863318827057
C          -1.74022894918949   -8.60367956554816    0.02671055098287
N          -0.63571107182235   -9.33745021651343   -0.01426797635021
C          -1.02648949835055  -10.61275015631359   -0.00039366702939
C          -2.40473098134979  -10.69977163486278    0.04952278090463
N          -2.86474251689672   -9.42521971823149    0.06735068687326
C          -4.18814445721375   -9.03834054044932    0.11346305914024
C          -4.77975117639282   -7.80433612942565    0.13138018559061
C          -6.17087744768128   -8.05844354052079    0.18100856968031
C          -6.31700453398401   -9.41058550491247    0.18886348938508
O          -5.11595110577812  -10.01921859023183    0.14815461190972
H          -2.26432871558327   -0.47649087651740    0.02475860885073
H          -0.96300420706913    1.79837213755536   -0.01483962279197
H           1.62554696837650    1.40491981412076   -0.08514759014005
H          -0.31331852422941  -11.41270219259471   -0.02615303060450
H          -3.06244596738300  -11.54434622870476    0.07261531122698
H          -4.27918015014755   -6.85964184158881    0.11159155547602
H          -6.95222277922524   -7.32782531553417    0.20685003000612
H          -7.17981024546178  -10.04503600210932    0.22035559752023
