30
         -59.585433618734          0.000686474084
C          -1.28312068632763   -0.36552398118059   -0.00035927130923
C          -0.47978432372125    0.73924107983245   -0.01712564574231
C           0.83728496267367    0.22851930580354   -0.04081265315077
N           0.83697444116821   -1.08082662038135   -0.03844480478056
N          -0.44987511322431   -1.44629389578983   -0.01397242359161
C          -0.81518827006732   -2.75862636051625   -0.00497692616204
S           0.35985898948735   -4.04106726269881   -0.02402967025117
C          -1.05903963054332   -5.11117978651985    0.00404654391656
N          -2.18428974503193   -4.45619748647397    0.02318499639718
N          -2.05586583391094   -3.15630569994385    0.01825417687696
N          -0.82173573444735   -6.43094776124911    0.00055597069445
N          -1.85487417759228   -7.19742617057736    0.02445164198490
C          -1.64756403666999   -8.51623924418319    0.02022984960344
N          -0.51954844623166   -9.21509379392899   -0.00354987314558
C          -0.86842519600640  -10.50060033802722    0.00491602423152
C          -2.24460493365619  -10.62835986803561    0.03437850489125
N          -2.74961611338198   -9.37233333666633    0.04445354034576
C          -4.08755379305502   -9.03332376388632    0.07250006015379
C          -4.65648391551160   -7.79103115477999    0.08375949720335
C          -6.06464331737011   -7.85134539708531    0.11347645657801
C          -6.54720380299473   -9.12036722802693    0.12436004028017
S          -5.29359318384271  -10.29321999116639    0.09842577592946
H          -2.34464395491616   -0.49604634923263    0.01957866819662
H          -0.77682027924947    1.76731924644112   -0.01333535894149
H           1.76217609362839    0.76939535501208   -0.05895317775192
H          -0.13006075517180  -11.27776642104249   -0.01018363806947
H          -2.87007685319469  -11.49811584666526    0.04823383225133
H          -4.08152938866805   -6.88358301905422    0.07096653080912
H          -6.69169127496015   -6.97868230791068    0.12610742188256
H          -7.56675172721015   -9.44995190206669    0.14591391066983
