30
         -60.093705276579          0.000350053755
C           0.63975083736108   -0.85123395831762   -0.06535679325499
N           0.37205147903880    0.46842354984120   -0.06849100169381
C          -0.93164209512419    0.57610499692888   -0.01757925689542
N          -1.53639898660192   -0.62742570461831    0.01948370045393
H          -2.51949386696222   -0.84351496907537    0.06046818604677
C          -0.54036187146459   -1.57281828408795   -0.01011998091509
C          -0.81495235634695   -2.96662723303951    0.01108975658494
S           0.42440852662470   -4.19897569963838   -0.02044035146651
C          -0.92146266740378   -5.34166542624924    0.02597762135491
N          -2.08636100365470   -4.75244622626060    0.05970373073887
N          -2.02955166553442   -3.44970095724217    0.05183120288023
N          -0.65111512137431   -6.65865447118594    0.01467010145419
N          -1.70312349157165   -7.40229459327154    0.04551980374520
C          -1.59902168947882   -8.72836950740234    0.02962332691469
N          -0.55307627522610   -9.54659327303050   -0.01247247256658
C          -1.04556423539013  -10.78214849753189   -0.01140555613466
C          -2.43173429050168  -10.75935021983867    0.03111151168168
N          -2.78961679743868   -9.45764522998238    0.05797900323559
C          -4.07093292274851   -8.94491235710438    0.10125411078302
C          -5.30125802331838   -9.57026521962085    0.13351759807225
N          -6.27703781051306   -8.63772378595186    0.16929053972203
C          -5.67366142147667   -7.47739304799694    0.16088240535714
N          -4.33080044864750   -7.60259429333197    0.11934292042994
H          -3.59349910390986   -6.90029867051554    0.10320723391037
H           1.64446182022058   -1.22130974990068   -0.10231364828971
H          -1.46290482923379    1.50672910392494   -0.00632059118965
H          -0.39975490032662  -11.63727470641284   -0.04172402114430
H          -3.14652314254600  -11.55567426736726    0.04275703129624
H          -5.53448249645784  -10.61526336515334    0.13258463134154
H          -6.17428114999341   -6.53110393656829    0.18299925754882
