26
         -50.291621851716          0.000692741905
C          -1.18529915280735   -0.29027070257478   -0.41866529321123
C          -0.36964979323780    0.80754553018144   -0.08543014927070
C           0.73754836888304    0.28548269091103    0.51932796577088
O           0.66425987256102   -1.04863005285858    0.58233814337605
C          -0.50630609990418   -1.40944168362469    0.01220443248287
C          -0.86876575701210   -2.78410556045847   -0.06396508016991
S           0.13487048229473   -4.07320865349231    0.58085927115108
C          -1.16761861264449   -5.14799181528255    0.03939162849521
N          -2.14010185865137   -4.50098704007573   -0.55310688223924
N          -1.96804668777727   -3.21274673945223   -0.61477415823617
N          -0.96243438747650   -6.46055088067310    0.07127434610304
N          -1.94099955373731   -7.26961923247259    0.15957315233108
C          -1.72099458962996   -8.57822055342532   -0.03622181847934
N          -0.63172220375982   -9.25404684143987   -0.39119116714585
C          -0.99775513039351  -10.53330774825680   -0.45895297964705
C          -2.34083748645108  -10.66859323265503   -0.14461547793574
N          -2.79299968564087   -9.42934729598607    0.12226139086671
C          -4.12469796534607   -9.03968101860003    0.48512329397582
H          -2.13737903648255   -0.28595050732056   -0.90580329442407
H          -0.57439890753151    1.84223439391368   -0.26808829413469
H           1.61273007816550    0.74808775703764    0.93120589438312
H          -0.29674437965928  -11.29865034463635   -0.72684898920248
H          -2.96877245652178  -11.53546928039368   -0.09944299708195
H          -4.42535078239967   -9.53093368824980    1.41256255974175
H          -4.82789401888008   -9.31150885460570   -0.30459351651186
H          -4.13072025596071   -7.95922864550995    0.62109801901348
