30
         -59.605359422947          0.000703217074
C           0.83698326548825   -0.83776605693763   -0.04631685621284
N           0.66628542740585    0.49830740121589   -0.03999445120840
C          -0.62687745998082    0.70003198696423   -0.01251497480786
N          -1.31791800855289   -0.45667970629426    0.00320844757884
H          -2.31440979455322   -0.60276569911979    0.02584970974171
C          -0.39306922093817   -1.47173309054055   -0.01789371588290
C          -0.76907948064159   -2.84235785044662   -0.00882933182530
S           0.37335039870745   -4.15932926593650   -0.03730634292323
C          -1.06174928215072   -5.20668878148665   -0.00197233240259
N          -2.17321648478833   -4.52752973152193    0.02545165090315
N          -2.01832703757830   -3.23434232294049    0.02192395744771
N          -0.84307188724042   -6.52772057350423   -0.00538582643512
N          -1.88444536941504   -7.28392194753001    0.01797840697528
C          -1.68431193209385   -8.60490722970956    0.01610725405125
N          -0.55897138075712   -9.30700786407603   -0.00982762159319
C          -0.91241414550153  -10.59196794729744    0.00024000281347
C          -2.28838814169882  -10.71501899701849    0.03346695136690
N          -2.78900512978311   -9.45645468518421    0.04365329500204
C          -4.12563280571518   -9.11272103749914    0.07591325250808
C          -4.68968195535742   -7.86833986800217    0.09075515206570
C          -6.09821348817742   -7.92292720625099    0.12460657241276
C          -6.58565859628979   -9.19012079038082    0.13498856435412
S          -5.33639866174559  -10.36771945894106    0.10384696272896
H           1.81252667739547   -1.27980404402612   -0.06814249437628
H          -1.08907384932094    1.66681164238141   -0.00176862802503
H          -0.17645494330856  -11.37119602842011   -0.01651944667302
H          -2.91724936775878  -11.58222310612548    0.04985751264690
H          -4.11044799141900   -6.96373133874074    0.07766639104862
H          -6.72199655355008   -7.04794790547009    0.14053132615164
H          -7.60632280068049   -9.51600849716051    0.15928661256880
