30
         -60.073468605970          0.000520405143
C          -1.36706869913269   -0.40350184595855   -0.01379628685740
C          -0.56663922120156    0.70322080090051   -0.02072235075285
C           0.75260166044077    0.19633806217550   -0.02490780792639
N           0.75587563928736   -1.11274106121366   -0.02085981528235
N          -0.53074089042382   -1.48236651440745   -0.01397341430148
C          -0.88554720331500   -2.79672975688074   -0.00805049843072
S           0.30931002931414   -4.06203101424542   -0.00301252370564
C          -1.09102520255405   -5.15069133957665    0.00517594403887
N          -2.22992877808680   -4.51469482080981    0.00125051276053
N          -2.12051750676456   -3.21192224509688   -0.00649594225938
N          -0.84356275804331   -6.46761638932353   -0.00185594614927
N          -1.87274711124300   -7.24152717262502    0.03702793199585
C          -1.67006503310617   -8.56170427376581    0.01914027825721
N          -0.55034971259249   -9.27502498544127   -0.02844317224717
C          -0.91945607991849  -10.55293050422314   -0.01855180202310
C          -2.30027912280345  -10.66353394445466    0.03510829514274
N          -2.78227322829539   -9.40129751866367    0.05952957635744
C          -4.10785001496313   -9.02031214386702    0.11027347190609
C          -5.27003227200046   -9.76312958517379    0.15603205146271
N          -6.33169901906299   -8.92948319420801    0.19506683903010
C          -5.84558421974901   -7.71592252944233    0.17401228521321
N          -4.49631501314620   -7.70995542115523    0.12237814151297
H          -3.82886059361110   -6.94255153273440    0.09623371062067
H          -2.42850707933781   -0.53631449135056   -0.00875735859017
H          -0.86584817229347    1.73050215665466   -0.02259794234507
H           1.67594448258097    0.73986101039080   -0.03076969587509
H          -0.19316168633500  -11.34071533609881   -0.04960331494935
H          -2.93583630455749  -11.52410952612666    0.05609265058606
H          -5.40010151692950  -10.82590477718803    0.16333963550259
H          -6.43750537215561   -6.82403010609021    0.19467654730810
