30
         -59.609801353986          0.000599732362
C          -1.27735218222320   -0.43317065205831   -0.00437976061815
C          -0.58331683288108    0.78569105077858   -0.01214441369605
C           0.76995678475754    0.62020293038790   -0.02724931875970
S           1.22925900615963   -1.02903236653630   -0.03209823555092
C          -0.43574155639191   -1.52204147891236   -0.01347938897273
C          -0.81196737967516   -2.89318170741727   -0.00845099785097
S           0.33971061019425   -4.21185805681208   -0.01016336321931
C          -1.08343857801041   -5.26202517678760    0.00378379820907
N          -2.20375638693171   -4.58831103863003    0.00529621754889
N          -2.05695543953248   -3.29655371906374   -0.00175524533317
N          -0.86608356148982   -6.58117842560881   -0.00555908203377
N          -1.90731574608023   -7.33984826082754    0.03860429364368
C          -1.71496592788543   -8.66290156743219    0.01802981471588
N          -0.59934969135594   -9.38121511714441   -0.03635908440793
C          -0.97529198629229  -10.65811760347935   -0.02552075091600
C          -2.35526847421896  -10.76157991641224    0.03579413941326
N          -2.83068509797058   -9.49587060954731    0.06393492907125
C          -4.15391768642005   -9.10779472855901    0.12236075198280
C          -5.32023060050629   -9.84290881340017    0.17446153054798
N          -6.37652800623162   -9.00209421952211    0.21961625802883
C          -5.88259630603045   -7.79189501699915    0.19614175587357
N          -4.53345555771025   -7.79503577439039    0.13692100776347
H          -3.85946740963254   -7.03338640106024    0.10758855731822
H          -2.34628376697193   -0.53543586765156    0.00757061399108
H          -1.06231695070311    1.74797205883440   -0.00678080236048
H           1.52930490348589    1.37700936484248   -0.03588124266374
H          -0.25277720579151  -11.44916287483329   -0.06123704850899
H          -2.99588793369141  -11.61825174407889    0.05973980513909
H          -5.45704675567766  -10.90481605539429    0.18232225188768
H          -6.46829428429048   -6.89602821228424    0.22028300975690
