23
         -50.911893430952          0.000453072947
C          -1.23637313504847   -0.28856140027013    0.01410949958960
C          -0.41897669005150    0.80483731557341    0.00678727534820
C           0.89291167447442    0.27665838013750   -0.00280467446030
N           0.87611117504684   -1.03191147307890   -0.00143118455204
N          -0.41634089144407   -1.38114674874415    0.00885611959079
C          -0.79986767560851   -2.68597975556717    0.01167715027868
S           0.34886972296138   -3.98873923221110    0.00333737697212
C          -1.09411636624161   -5.03367836068481    0.01251831597762
N          -2.20365342161165   -4.35425171952109    0.02014544601496
N          -2.05111994926960   -3.06238714809028    0.01965366437204
N          -0.87862002763058   -6.35659739764653    0.00575044995872
N          -1.90483743326896   -7.12230677412202    0.01648763281437
C          -1.68155512447121   -8.44620140827507    0.00510175813199
N          -0.57701802206175   -9.17905581117428   -0.01492051597798
C          -0.95459095565487  -10.46124881513562   -0.01810432825672
C          -2.33201830010460  -10.56738950425792    0.00000203628550
N          -2.76249340104792   -9.29298471129293    0.01447302967580
F          -4.07182278391494   -8.93586095511098    0.03444118531236
H          -2.29976250722865   -0.40553406017560    0.02236370399340
H          -0.70199656898482    1.83667622326976    0.00789257087738
H           1.82434888143274    0.80614494999435   -0.01057961969944
H          -0.22826149727345  -11.24929792156242   -0.03310968116984
H          -2.99847670299822  -11.40441367205401    0.00337278892277
