25
         -50.184220486795          0.000733414283
C           0.76556185089562   -0.82441967509794    0.41266326196241
N           0.61553784685682    0.50907823992499    0.28490408466714
C          -0.60662673237798    0.69823679649701   -0.14372488493959
N          -1.27129105053220   -0.46377824479997   -0.30263253543541
H          -2.21484078879898   -0.62001710876215   -0.61908785426975
C          -0.40385718105073   -1.46834656129970    0.05085636841134
C          -0.77765224842582   -2.83922540023337    0.00266724196229
S           0.29483839448977   -4.15284837416266    0.44076370885783
C          -1.08944359245935   -5.20309867498732    0.06678156296751
N          -2.13359348833604   -4.53177030325259   -0.33821996402052
N          -1.95784988520138   -3.23973063927679   -0.38081602488129
N          -0.88946989350210   -6.51868639460201    0.03871737433123
N          -1.87952235782369   -7.31260326976271    0.18579283490224
C          -1.70693699651952   -8.62223048370756   -0.01576242888566
N          -0.67181830561241   -9.37786360853218   -0.37849059501172
C          -1.11048846549580  -10.63159537584643   -0.37005389690891
C          -2.45380873623575  -10.68612763314443   -0.01136298890482
N          -2.81890856243233   -9.41436730552277    0.21205737218535
N          -4.07264580047307   -8.92471935356603    0.49614890789808
H           1.68581678630091   -1.25662129503899    0.75045022978771
H          -1.03624583224750    1.65859661224127   -0.34768706763373
H          -0.46264935580295  -11.44821186038329   -0.61941663742737
H          -3.12692574361243  -11.51166079951876    0.09469783246404
H          -4.46268416610410   -9.33338679313145    1.34126447233847
H          -3.99244569549859   -7.91096249403479    0.57498962558286
