30
         -60.432983829613          0.000785785917
C           0.76880591560161   -0.80726957489019    0.50301601751336
N           0.65464061014806    0.52627483483286    0.34694588494142
C          -0.51392260283725    0.72929238660570   -0.20663559291987
N          -1.17800858454000   -0.42388451837032   -0.42090460106459
H          -2.08701951260536   -0.56847983200382   -0.83032534948733
C          -0.36850755261670   -1.43778016907526    0.03008322583000
C          -0.75708595730244   -2.80298684774461   -0.03890380029357
S           0.23576064441199   -4.12465541842934    0.54055452148540
C          -1.11613057962394   -5.15989248453628    0.03469791934425
N          -2.09577220930785   -4.48030329644901   -0.50093814180007
N          -1.89368058028254   -3.19376150942697   -0.54786650923636
N          -0.94034006907900   -6.47893020338090    0.06175209107595
N          -1.95936287198468   -7.24826444580019    0.10515372987351
C          -1.76465603738336   -8.56400881113746   -0.04331229865939
N          -0.65837051509829   -9.26760392944293   -0.24026809057303
C          -1.02813686518494  -10.54851900716106   -0.29214107364590
C          -2.39551027963198  -10.66742475075724   -0.13227179140204
N          -2.86969224266020   -9.40734297801618    0.02590089145279
C          -4.18990728171864   -9.04486786673137    0.19626262904267
C          -4.79908285356938   -7.82060640995183    0.24855954518929
C          -6.17449778981563   -8.09513096198546    0.43311429830005
C          -6.29512694323726   -9.44936826502987    0.47661587155216
O          -5.09304205396113  -10.03915477244431    0.33199434626901
H           1.64174948406846   -1.25107977568005    0.93771286779631
H          -0.90436346553747    1.69396715700927   -0.46269547930792
H          -0.30748967899110  -11.32819717704279   -0.44002840875325
H          -3.03830713338270  -11.52347922553605   -0.12222457860698
H          -4.31858774003322   -6.86942873576846    0.16037409895334
H          -6.96231037633474   -7.37621801420109    0.51928571121464
H          -7.14101487752206  -10.09547539746160    0.59866206591178
