25
         -50.562899301173          0.000853248238
N           1.39320482015000    0.06268006920752   -0.06997001732853
C           2.73516006428293    0.08612424258883   -0.10336087142736
S           3.65970804689567    1.57613592193910   -0.07375741450800
C           5.08782551966808    0.49909372520433   -0.07788460689272
N           4.75657234960077   -0.75429234816664   -0.10167618649498
N           3.47114159375778   -0.99273610725537   -0.11812925449987
N           6.28696286255116    1.09093470763485   -0.07021394971970
N           7.31023559571139    0.31077106346240   -0.05595578724156
C           8.52399921788752    0.87264729595711   -0.05958612337050
N           8.90727835501721    2.14156130434249   -0.07579868643345
C          10.24293384080741    2.13397533068655   -0.07032132481722
C          10.72325215859601    0.84011595065876   -0.05099448736305
N           9.63338832699582    0.03181071402478   -0.04426163069370
C           9.63733914997054   -1.34752066311910   -0.02642506280576
C           8.62026792269472   -2.26294903156686   -0.03205953215009
C           9.25577468766205   -3.52694555786590   -0.00552032089831
C          10.59429834435594   -3.28680879340971    0.01346993514852
O          10.84009101559139   -1.96186856268371    0.00119173093052
H           0.87685709470651    0.90863576108181   -0.22861655071782
H           0.94007198004207   -0.82306722365986   -0.21482606432108
H          10.80149423156241    3.04910487083101   -0.08069362114136
H          11.72070895212569    0.45136084542809   -0.04223732075489
H           7.57303774825468   -2.04608333207619   -0.05195481784244
H           8.77346781884596   -4.48221471249912   -0.00156349403055
H          11.44561830226634   -3.93702547074513    0.03581545937384
