23
         -51.274597912259          0.000579304439
C          -1.25440432602833   -0.24493021687173    0.01458564675241
C          -0.36980841241242    0.84810842197662    0.00437723682551
C           0.88858716980133    0.31480435845083   -0.00849898231940
O           0.84350189183070   -1.02024360181310   -0.00694023454723
C          -0.46099520760029   -1.37385139978536    0.00709610667406
C          -0.83212541222900   -2.74697635562196    0.01098244919160
S           0.32012988005865   -4.05573990359031   -0.00158983080682
C          -1.10935327894822   -5.11199602117348    0.01223451557864
N          -2.22416237286366   -4.43521222645422    0.02381570823220
N          -2.08039466264185   -3.14874306643378    0.02313542853550
N          -0.88755057574574   -6.43239974467388    0.00495226952299
N          -1.91419912508356   -7.20026528231387    0.01852528496291
C          -1.69224478569270   -8.52415573811521    0.00707751518883
N          -0.58988269916873   -9.26033856994452   -0.01558602200936
C          -0.97151915576522  -10.54200666281015   -0.01709692030597
C          -2.34833968057796  -10.64427540608596    0.00471891317095
N          -2.77527940348482   -9.36810465363012    0.01973034984266
F          -4.08447631398046   -9.00847912491528    0.04309157998956
H          -2.32385900179026   -0.23459821693801    0.02583906113240
H          -0.62709775330957    1.88709417831325    0.00616952508397
H           1.85793067774324    0.77326678434920   -0.01918172882418
H          -0.24749839706336  -11.33209979574559   -0.03368472237520
H          -3.01754905504773  -11.47901775617339    0.01031685050397
