17
         -37.974011787329          0.000916120765
H           1.03127389407781   -0.45172107556647   -0.00131733656581
C           2.08119057006488   -0.23621021666580   -0.00678662556952
S           2.69348703123467    1.37253143549027   -0.00742331154009
C           4.29349495320601    0.59514229308903   -0.01756103431293
N           4.20764554447276   -0.70220314020391   -0.01967350737280
N           2.98720739876412   -1.15975113071114   -0.01379858172174
N           5.35579072242404    1.41425413946265   -0.02326687119781
N           6.51873955293778    0.87948590809162   -0.02840991496723
C           7.56787956178809    1.71866411925010   -0.03521776835622
N           7.65521254959869    3.03111492998593   -0.03749562017531
C           8.96116421731528    3.33656698492397   -0.04476995698621
C           9.72861967698555    2.19504252098620   -0.04729299062031
N           8.84694967458278    1.15291554332813   -0.04120211601772
C           9.14781830242172   -0.14102182511798   -0.04121203953697
N           9.43794937821558   -1.24650507910894   -0.04086910655460
H           9.28812056594326    4.35733340188035   -0.04783781323150
H          10.78951640596693    2.04639119088601   -0.05273540527322
