23
         -46.773102276906          0.000289751000
C           0.90343907095453   -0.81233252188382   -0.01125174792042
N           0.75097053935367    0.52576134875167   -0.01166111529801
C          -0.53969952169036    0.74528136495050    0.00257413470028
N          -1.24653480498560   -0.40161851573016    0.01233001102624
H          -2.24510674038029   -0.53465603242694    0.02358093541006
C          -0.33554047932568   -1.42944483736509    0.00369506805433
C          -0.73361443121311   -2.79377682324564    0.00913932436772
S           0.38213606300322   -4.13145656211672    0.00085165913999
C          -1.07684430938605   -5.15230528860409    0.01448941812427
N          -2.17216003553380   -4.44962489709191    0.02242452442595
N          -1.99162975753125   -3.16129481087819    0.01948240520953
N          -0.87732693604126   -6.47648244358291    0.00565910960814
N          -1.91516421642642   -7.23192815337714    0.02734748029328
C          -1.71014916464648   -8.55903412545445    0.01096859131432
N          -0.60370044384296   -9.29280153629773   -0.01984421411338
C          -1.00061525626363  -10.56650870156278   -0.02061104570680
C          -2.38297237904338  -10.64511575988105    0.00968105420357
N          -2.82056917204834   -9.37047203372818    0.02992850126383
H          -3.77226402519866   -9.04140803025507    0.05317521349805
H           1.87289266518863   -1.26809039202791   -0.02178294454097
H          -0.98858140327315    1.71841145066859    0.00605302105343
H          -0.28899429358213  -11.36790096104610   -0.04231584937448
H          -3.04071096808751  -11.49016173781480    0.01747646526108
