18
         -36.867796549667          0.000751732596
H           1.23726126823452   -0.55311432789268    0.30295284854960
C           2.26038155217012   -0.24178412561390    0.23918846801110
S           2.72408901778654    1.42272444548946    0.31932406762168
C           4.37569313310354    0.80851938527443    0.14593769237316
N           4.41621047908116   -0.48809025171300    0.04572609699310
N           3.24064968332866   -1.06588551037903    0.09769920453965
N           5.37336062175994    1.71042122303404    0.10080423578031
N           6.56048018965729    1.21928300669027    0.06474240194260
C           7.61649562487980    2.02738431376190    0.02165418391768
N           7.79404334898924    3.34890119334149    0.06263204603399
C           9.10537028828752    3.54413633655733    0.06425596353829
C           9.79184380329200    2.33180385461100    0.00897141674158
N           8.84573554525521    1.38443745479653   -0.01530022254772
N           8.98973202774383    0.02772105344745   -0.16594230030558
H           9.52090821679356    4.53155048510804    0.10365311737140
H          10.83930877271477    2.11170603656546   -0.00694160215972
H           9.61228523287211   -0.37704636745707    0.52747854052624
H           8.05601119405025   -0.38247820562160   -0.12244615892744
