18
         -41.063620405247          0.000597886764
N           1.35566352783353    0.12479439517993    0.09379687869068
C           2.69433229207160    0.12361782625874    0.04542815836658
S           3.65052897583559    1.58880332523532    0.04383551136937
C           5.05847539391386    0.47359607776375    0.02736557308113
N           4.69172805221609   -0.76937939221904    0.02283865797360
N           3.40704546973359   -0.97590903066022    0.03113108437671
N           6.26293340741702    1.04619803171368    0.01947707522241
N           7.29342319936598    0.28300110259796    0.01497634910723
C           8.49564235808462    0.88544305684519    0.00694596790813
N           8.87264923093975    2.15539473752464    0.00235109027522
C          10.21168466135617    2.16924684251948   -0.00302067062762
C          10.71521895379187    0.88565736478492   -0.00240906165165
N           9.62029904465373    0.10006722474110    0.00390954426651
F           9.66507849897704   -1.25850330279231    0.00637255550894
H           0.84539349085118    0.98015360220034   -0.02810155276405
H           0.88204666294634   -0.75629429517565   -0.00704181688404
H          10.75188062313096    3.09490823550628   -0.00715026506865
H          11.70958615688112    0.49117419797590   -0.00551507915050
