23
         -50.932271498264          0.000753605518
C           0.89248207844651   -0.80140774398038   -0.00523443062678
N           0.73995298940689    0.53558576517549   -0.00524353964080
C          -0.55134182267917    0.75548557071807    0.00229247701044
N          -1.25832873818742   -0.39049701425186    0.00780516592443
H          -2.25716271676168   -0.52264302699157    0.01403875721127
C          -0.34765152815688   -1.41864486394678    0.00317915472478
C          -0.74547735371387   -2.78164404175552    0.00597278238270
S           0.36433486480673   -4.12128516040713    0.00313639869038
C          -1.09966937049913   -5.13815775088978    0.00992092703283
N          -2.19156581834994   -4.42977294458988    0.01215986755886
N          -2.00738880917277   -3.14595686268617    0.00980243141783
N          -0.90404565774940   -6.46110694044079    0.00257393641124
N          -1.93733933355096   -7.21874494906325    0.02114019738443
C          -1.71622258954880   -8.54367364386466    0.00649198059393
N          -0.61068903273547   -9.27408574691108   -0.01976810403554
C          -0.98610411030460  -10.55745229107179   -0.02045852751901
C          -2.36257439281234  -10.66602279754930    0.00479305718827
N          -2.79546416723077   -9.39158112678679    0.02192874978354
F          -4.10614478537312   -9.03714389413298    0.04834437316226
H           1.86192120518742   -1.25716416829826   -0.01105780885077
H          -0.99940466927729    1.72892081079108    0.00414805801198
H          -0.25793462366115  -11.34371262895440   -0.03899641302110
H          -3.02788161808278  -11.50384455011225    0.01161050920482
