20
         -40.701298538268          0.000812472944
C           2.14576240745713   -1.14399326322154   -0.16800450304387
O           2.82717409684005    0.06020577842438    0.15605393752008
C           3.32970823255325    0.11924029614165    1.37266923502239
S           4.22173288677440    1.54538472845689    1.87052674539836
C           4.43153724982210    0.66440491385205    3.40880407407355
N           3.84618170258937   -0.49481302561482    3.40722074215858
N           3.22648389274807   -0.79167906450224    2.28508463919649
N           4.95384966735273    1.32535985255308    4.44206001373187
N           5.55464612718932    0.69630304439513    5.37057104297091
C           5.88945123510981    1.37102419353265    6.48563279178354
N           5.64102420916164    2.60922342438356    6.89148453102412
C           6.19333096196266    2.72248368364989    8.10209066942656
C           6.80237148658015    1.53584645759973    8.47087105861109
N           6.60323020739379    0.68805988539944    7.44178538912180
H           6.90212076730465   -0.27030795351141    7.36087159093950
H           1.78158900278796   -1.01305021674635   -1.18434337285675
H           1.31594006477675   -1.30897477995287    0.52148239468383
H           2.82689449559633   -1.99525010078149   -0.11000271273294
H           6.13200928842626    3.63933275464463    8.65381530174222
H           7.33526201757344    1.26232939129797    9.35859643122872
