23
         -50.198116657290          0.000821611112
C          -1.04017899664204   -0.62157949744426   -0.47759878360405
C          -0.34484284026311    0.58850020668200   -0.33990374275752
C           0.85012789737690    0.43917744254225    0.29916049980506
S           1.15545535943815   -1.18583652624224    0.74674834172507
C          -0.35920016105748   -1.68867735799718    0.06293896308635
C          -0.79280028289880   -3.04101138170265    0.09183064487983
S           0.11562456898921   -4.34640454144398    0.84476716675837
C          -1.25716225323068   -5.37038930972364    0.37944440159296
N          -2.17498327774027   -4.70568560643581   -0.27893249445827
N          -1.91075252953337   -3.44785935748230   -0.44227163422480
N          -1.12340063925793   -6.68382131141267    0.49014582897957
N          -2.08438828629158   -7.46766038532936    0.72185325564416
C          -1.85801337026479   -8.78815028451221    0.55108075232558
N          -2.70493264828131   -9.71506934962710    1.03360660541118
N          -2.25815192430677  -10.85894136393042    0.66340087131848
N          -0.85810271816775   -9.37648491037052   -0.14404907368776
N          -1.17065713764737  -10.62842370755385   -0.04447511920897
N          -0.49206588051607  -11.61413512800271   -0.67364412927467
H          -1.99839309794085   -0.73431902334794   -0.94848308903420
H          -0.71146288461525    1.53338455714899   -0.69782348963534
H           1.57413134648166    1.19374085838162    0.53509724042416
H           0.48412656810542  -11.37977258122065   -0.80739546119225
H          -0.66144681173631  -12.51209144097516   -0.23757755487225
