16
         -37.392429021402          0.000853242312
N           1.44286730003577    0.00221686942787   -0.13331469188961
C           2.77955062476459    0.00755969447703   -0.09620943113284
S           3.73926462679880    1.44664713684070   -0.37037730151015
C           5.14172173845052    0.35986841904562   -0.11562865711780
N           4.77620035083922   -0.86294434167658    0.11115562447822
N           3.49361106617301   -1.07146517763510    0.11521592122093
N           6.35391220276828    0.89522610578701   -0.29580868696355
N           7.37761257311955    0.23430204612532    0.04426682416509
C           8.59422192672630    0.80554445439203   -0.07296388569378
N           8.92131282508783    2.07450222702388    0.31743280629177
N          10.18833115624037    2.16541721451990    0.24148250701027
N           9.69382804585148    0.11954518173536   -0.38847008391802
N          10.64178301036350    1.01252539922970   -0.19630385017391
H          11.61891478625252    0.80956245658545   -0.35032234182829
H           0.92879877634922    0.86000708655363   -0.21489106525748
H           0.96472899017889   -0.84626477243183    0.11612631231914
