28
         -60.558536740690          0.000564957796
C          -0.66131720966809   -0.86154008204737   -0.79932178141206
C           0.02205943107173    0.24461352957201   -0.38232000892600
C           0.76129437872718   -0.18812963345148    0.74204329333818
N           0.54575175257019   -1.45516516062682    0.99102230863180
N          -0.31948302928528   -1.86902823740224    0.05676056662217
C          -0.76465984204551   -3.15335783755256    0.02326259652248
S          -0.26579801296749   -4.32735196571563    1.21689775562544
C          -1.34807625293742   -5.42888587347500    0.33147093146704
N          -1.90478182515040   -4.86538953262022   -0.70776027982036
N          -1.57266132920067   -3.61772865228626   -0.88297620689351
N          -1.30204352359573   -6.72559872974169    0.62306762963446
N          -2.29833968627256   -7.48820582991626    0.51539802374812
C          -2.08644956733339   -8.82002099659009    0.56462187109553
N          -3.06968114169089   -9.68758675693789    0.90738799406593
N          -2.60397985656068  -10.86077693291711    0.75920379719448
N          -0.98502441625514   -9.48567400425319    0.18422723189042
N          -1.36075772248209  -10.73719685071110    0.30991190877837
C          -0.53899238680336  -11.79136127509080    0.00025144950918
C          -0.72020459258206  -13.15520471251538    0.05596477151761
N           0.41096452180312  -13.76536216882319   -0.35672463983788
C           1.25894399043097  -12.81879010113862   -0.65641388681559
N           0.73409029079112  -11.58833007575740   -0.45668052738008
H           1.15284149610865  -10.68277676426418   -0.60279623043641
H          -1.34539413526937   -1.03751368998626   -1.60259744887037
H           0.00752576318315    1.22520289621563   -0.81007155544708
H           1.42811032171667    0.37895293261517    1.35961221092622
H          -1.58565078325624  -13.70242321307652    0.36573447210300
H           2.25346336695247  -12.98375028150818   -1.01778624683275
