21
         -51.770363143979          0.000770237465
C          -1.24980431614149   -0.32375392548052   -0.02100644205519
C          -0.33219641381299    0.74069569731154    0.00053871563199
C           0.90979282663113    0.16875338940413    0.02108169586361
O           0.82419403917803   -1.16362992886780    0.01292196361331
C          -0.49052337214643   -1.47719605666546   -0.01259265211770
C          -0.89822871076203   -2.83767159530462   -0.02108306671795
S           0.22561158502032   -4.17626581729229    0.03091661137845
C          -1.22743048580488   -5.19581197688862    0.05026492167752
N          -2.33062899788498   -4.49388271584241   -0.02095686861386
N          -2.15125454341593   -3.21636491624054   -0.07290479328743
N          -1.06267971042546   -6.51042908903135   -0.07390877207632
N          -1.95471551761120   -7.32314156846856    0.30066093128440
C          -1.72651969739732   -8.64013165867015    0.09538919214455
N          -2.73818400556378   -9.53885807035416    0.05858148827851
N          -2.20678389628796  -10.69807842243305   -0.03287098453032
N          -0.53767395956554   -9.26404358735772    0.02995250231013
N          -0.92479787391278  -10.49383382398860   -0.03601406284892
F          -0.04536830639512  -11.50248688367895   -0.07584996773506
H          -2.31832902195528   -0.27980924816822   -0.04132963638376
H          -0.55707686726831    1.78705620346872    0.00114236032849
H           1.89274724552257    0.59703399454896    0.04156686385588
