24
         -49.958431179678          0.000591598038
C          -0.99378387534149   -0.69772169600757    0.63613105239496
C          -0.36090405948968    0.53872108825446    0.44499591224650
C           0.73142711378475    0.45081858175054   -0.36626675946730
S           1.01521584666442   -1.14669748239090   -0.91453944225150
C          -0.36892696722288   -1.72254767526829   -0.03845136687539
C          -0.76633230802042   -3.08578498620816   -0.05502714907388
S           0.07278647810237   -4.34443755964649   -0.95276179990528
C          -1.20645478033936   -5.41629031253029   -0.35510522290016
N          -2.05207690837363   -4.79672774514963    0.43190205066393
N          -1.80041384728921   -3.53765015809651    0.60060924472841
N          -1.06315630423089   -6.72541629412167   -0.51972349408629
N          -2.03474781045975   -7.51360925120153   -0.65493173147941
C          -1.80282969903325   -8.83912438660606   -0.52726406958664
N          -2.61579255096700   -9.76415601856370   -1.09149332148602
N          -2.19881863713913  -10.90435940231753   -0.69858545418933
N          -0.87305585411629   -9.43719139431878    0.23446263780323
N          -1.17173800266364  -10.70065367102025    0.10177001113829
C          -0.47861319774771  -11.75348693128303    0.77309142876988
H          -1.86923244132922   -0.85893365748889    1.23679708544147
H          -0.69768066294567    1.45819217135498    0.88833463183814
H           1.39060062478527    1.23729103197233   -0.67647080136332
H           0.57514498323412  -11.49315428045418    0.85027621823145
H          -0.61136811963813  -12.66844559638846    0.20034077737668
H          -0.88738902022317  -11.89098437427127    1.77567956203130
