23
         -51.050929188857          0.000889539903
N           1.85035788988747    0.62539442000244    0.04475015050166
C           3.18018956034170    0.48367469588587    0.02628634677549
S           4.28187585588119    1.83663176461376   -0.13337678467255
C           5.56819574673372    0.59458766673504    0.03057026483410
N           5.07787014593008   -0.59850229731802    0.15507323959486
N           3.77991818783583   -0.67506730556158    0.14155884824179
N           6.82419516596975    1.01791937825890   -0.12051783130125
N           7.78638228809562    0.24973124675571    0.19572799203796
C           9.03538321871850    0.73903994824628    0.03103527789247
N          10.11287274423520   -0.08226526213053   -0.05667953513903
N          11.14453993926996    0.65653211568372   -0.09706898667625
N           9.42246824239948    2.02037951084501    0.05388386092631
N          10.73123375700774    1.91785245858336   -0.01426004481649
C          11.56135841284364    3.01516894495641    0.00581516220270
C          11.24832470268738    4.34760650084980    0.05341587052365
C          12.49252168984155    5.01633472555835    0.05101949655506
C          13.44722418821583    4.04453076446155    0.00173980788276
O          12.88784090031828    2.82454518744868   -0.02551382185578
H           1.42712041114361    1.51465634161412   -0.14482275986817
H           1.28393506473073   -0.20371816144808    0.09120258243311
H          10.26569580047090    4.76839620100717    0.08494256825303
H          12.65046897159458    6.07417707610235    0.08089705632684
H          14.51751711584792    4.09020407884967   -0.01842876065238
