16
         -37.364897985569          0.000946533596
H           1.27775977215606   -0.14463006886356   -0.17057020657488
C           2.32135805408925    0.05302072499984   -0.03530924188949
S           3.15080054186392    1.28576566623335   -0.93736825732034
C           4.59411827344659    0.72910961883062   -0.06669491625328
N           4.32373498692431   -0.22492109385293    0.78589745462688
N           3.06611958103373   -0.58002206075244    0.79739552802141
N           5.69777535468561    1.46380338550283   -0.13904443561817
N           6.86046606409661    0.98958109104855   -0.17328149883964
C           7.89195896698716    1.84131984857926    0.03263368912166
N           7.87926476707166    3.00693056932888    0.71362338124703
N           9.09273108837759    3.41817063523540    0.76851447576497
N           9.14534350431446    1.52839806519982   -0.34536687095375
N           9.82160674594985    2.53062036555389    0.12537687789537
N          11.16768170503739    2.61381622746542    0.04305935400021
H          11.53182305246094    2.06791352046406   -0.72807550546215
H          11.48621754150484    3.57433350502705    0.07933017223415
