20
         -44.608688756576          0.000912980977
C           2.86717610945745   -0.78607347701896    0.60226055372238
O           2.98888739250506    0.55214338751088    0.13680981213333
C           3.44521266536048    1.42143663747743    1.01187664772021
S           3.67519872454890    3.09237302141824    0.53129487961018
C           4.27093122943834    3.30817715356950    2.20288620914584
N           4.21356702039453    2.21423515152356    2.90020372659919
N           3.74566675669489    1.17599296638647    2.24790676902099
N           4.47468348334292    4.55336228221307    2.62958453725232
N           5.32983741163930    4.82734579293891    3.51762430244439
C           5.29626392268249    6.07553336492918    4.03526745564349
N           6.32315173971094    6.56791790818865    4.75103532241003
N           5.97554727939195    7.73663672657936    5.14887126228552
N           4.27885002201499    6.96510588561048    3.99372672337784
N           4.75406938392840    7.94128026800667    4.69783565663369
N           4.03964301042148    9.04535042697048    5.01308856046303
H           2.45217834444603   -1.35052323439342   -0.22925143594030
H           2.20469014358677   -0.82844424194757    1.46827524870834
H           3.84416001809999   -1.18141795805540    0.88564768844291
H           3.35072700928215    9.26801410588780    4.30477652415274
H           4.64796833305225    9.81220383220464    5.27287955617282
