18
         -45.354870337796          0.000796176767
C           1.77815968107477   -0.68873079494951    0.41772342265311
O           2.80510376109613   -0.03809313274836   -0.32412245129145
C           3.31084550622980   -0.71570245814356   -1.32389718748959
S           4.56275639782344   -0.00989990485880   -2.31683653142634
C           4.47048122017771   -1.54339256528979   -3.22291857444232
N           3.60554808795997   -2.37014961174772   -2.72015625695097
N           2.97187060222490   -1.92633721423237   -1.67135457620259
N           5.36464467597654   -1.73076915612798   -4.20531051498386
N           5.18957000812617   -2.66654200328630   -5.03032289736622
C           6.04195387565799   -2.81780633073688   -6.06350016685568
N           6.44846377084976   -1.82088431570727   -6.89966439051734
N           7.05504933700135   -2.38114952237321   -7.87701837547105
N           6.40641161342346   -4.01075685445198   -6.54381964033146
N           7.02712442291555   -3.64919203210173   -7.62464432838332
F           7.57728219777978   -4.55299037160979   -8.44109638258135
H           1.48038293170673    0.01651950394659    1.19028444644760
H           2.15720753320314   -1.61077132208106    0.86220127131802
H           0.93366437677274   -0.92957191350012   -0.23056686612546
