28
         -60.095373188114          0.000498926446
C          -0.70132483842960   -0.91222298325078    0.80622952822359
C          -0.10406897147191    0.32231967398910    0.51543575528604
C           0.73312825345766    0.26175498898158   -0.55944115182854
S           0.81371633839080   -1.30643417291725   -1.24186875776305
C          -0.30729225627490   -1.90813103156758   -0.05960269163355
C          -0.73414216788899   -3.26203061846499   -0.03911006277522
S          -0.21776302013589   -4.47147195277807   -1.20633968803598
C          -1.30872878504054   -5.56375741686062   -0.33364958128138
N          -1.88006252474191   -4.98463460475256    0.69380302426640
N          -1.55576561733034   -3.74185642724741    0.85553606103292
N          -1.25973196571558   -6.85956887032661   -0.61817938555910
N          -2.25527938739393   -7.62424135658808   -0.50071744103555
C          -2.04600884084129   -8.95593326417505   -0.53800877301323
N          -3.02897444017764   -9.82155022942763   -0.88858977690413
N          -2.57126518445937  -10.99594823903529   -0.72324142680317
N          -0.95393679278558   -9.62346538770033   -0.13589387814552
N          -1.33515198687492  -10.87521376082598   -0.25682284403097
C          -0.52351389632055  -11.93133051897524    0.07304663877279
C          -0.71129492022650  -13.29424397303291    0.02567269020476
N           0.41186534688091  -13.90738653638059    0.45690257445078
C           1.26106315064022  -12.96307467083452    0.75932767708992
N           0.74497276049801  -11.73138620204080    0.54365263474190
H           1.16582890445807  -10.82640274113772    0.68688039552203
H          -1.39261865468523   -1.09173145271421    1.60818031368538
H          -0.28467567145778    1.22129529705075    1.07627289563900
H           1.31112514699705    1.05368729875454   -0.99333769350418
H          -1.57580224731093  -13.83968692886676   -0.28968223967093
H           2.25040226823703  -13.13017391887279    1.13386520306891
