28
         -60.440065821514          0.000800113977
C          -0.69765511351347   -0.74359372252767   -0.78581050684162
C           0.03177563198426    0.35547960644445   -0.29668298368749
C           0.72651476399169   -0.10364839813707    0.78689869407811
O           0.48029211121899   -1.40009103777670    0.99947994897026
C          -0.38874810702120   -1.80103285837058    0.04458930907585
C          -0.84039900788370   -3.14887622289204    0.01721732555547
S          -0.34462935857575   -4.34265947280285    1.20427017342308
C          -1.43121165908334   -5.43940050332954    0.32690224058616
N          -1.98826630088105   -4.86679735744568   -0.71350231389037
N          -1.65345588692779   -3.62691295060405   -0.88424961349585
N          -1.38225498961499   -6.73150384940039    0.61709907628012
N          -2.36691214116356   -7.51022999324493    0.50876789825325
C          -2.12649427679274   -8.83795883971135    0.55288023549258
N          -3.10111703855168   -9.72637952687391    0.86746957943420
N          -2.60663962789483  -10.88840208442538    0.72565169228441
N          -1.00401757763461   -9.47915594394509    0.19893749711384
N          -1.35284033528547  -10.73339552636661    0.30976194303708
C          -0.51954364290792  -11.78539481735216    0.02573958831417
C          -0.82055618189521  -13.11672018066724    0.11973210184170
C           0.27631938968215  -13.91803663896020   -0.24534032335123
C           1.36795351449026  -13.18686773173540   -0.60256772286941
S           1.09766122866066  -11.49411228546518   -0.50536936735892
H          -1.36022932556278   -0.78055159196943   -1.62489585653460
H           0.04178870051929    1.35040609657106   -0.69148341828521
H           1.40379322935102    0.38330389907429    1.46103737182597
H          -1.78057751191902  -13.47976103419930    0.43521569280618
H           0.25485978646415  -14.99232254933372   -0.24289716302327
H           2.32595972674687  -13.54650448455384   -0.92126109903416
