23
         -50.708897596399          0.000927769877
N           1.91982027000694    0.61603696936833    0.05023639605859
C           3.24912013622127    0.47165214292286    0.03291009235674
S           4.35615421541904    1.83045561434744   -0.00286868517679
C           5.63747938538265    0.57352529137691   -0.00440823169563
N           5.14349379529792   -0.62413442084848    0.03898559109530
N           3.84546398042326   -0.69313766392781    0.07169508036819
N           6.89694741891699    1.00344470483945    0.08006859355245
N           7.85072036431375    0.19208258227033   -0.15478738080409
C           9.10064154998363    0.69279091357105   -0.03194155366031
N          10.18369277550292   -0.12018282181642    0.01727183626361
N          11.21368842614411    0.62541269146200    0.05279996177016
N           9.48016419891965    1.97895628468096   -0.03244816963065
N          10.78935652732237    1.88215053863187    0.01061926070312
C          11.60761881717236    2.98428571920868    0.00518393209666
C          12.97590717479573    3.12833143058470    0.01780172556093
N          13.27920263536985    4.44483313555867    0.00618748658025
C          12.14430347024728    5.08959342867354   -0.01215251097973
N          11.08529873426917    4.24797521133499   -0.01341182131929
H          10.09887942949391    4.45668409670268   -0.02670510155464
H           1.50095920950938    1.52267748505524   -0.04348673410180
H           1.35053976900536   -0.21051543270849   -0.00333259470776
H          13.72862038098429    2.36845942796648    0.03367008307700
H          12.04939733529829    6.15621267074475   -0.02528725585229
