23
         -50.681871761730          0.000838376419
C           0.80757395788488   -1.02940862556861   -0.45627793810951
N           0.73175096589632    0.29477405611539   -0.22380714484375
C          -0.43875348166049    0.50126496839645    0.32489197780255
N          -1.13997086794265   -0.64078810448536    0.46319470140054
H          -2.05872664690388   -0.78022796700519    0.85144479116319
C          -0.35518232224060   -1.65138036986339   -0.03516618440854
C          -0.78536116100036   -3.00448686082407   -0.05062447813460
S           0.16533898551646   -4.31803535191280   -0.71446529090880
C          -1.23317549788629   -5.33723897092884   -0.29330127734408
N          -2.18638103132867   -4.66014359788936    0.29160586284502
N          -1.93315197328535   -3.39332882725684    0.43361632312737
N          -1.08911631892175   -6.65430399108464   -0.36283402696777
N          -2.04214758079593   -7.44002517833969   -0.62212609739561
C          -1.82847443608741   -8.75793491278863   -0.41883793917883
N          -2.66941207731116   -9.68631961745228   -0.90914281830216
N          -2.24110116359219  -10.82718769899798   -0.51011869940712
N          -0.85090610142511   -9.34260256646439    0.31087468947226
N          -1.16967690636687  -10.59315539224532    0.22153786113990
N          -0.51563508719792  -11.57484195660944    0.88059680026270
H           1.67263313843552   -1.47332716723896   -0.90517574565230
H          -0.80263375210270    1.46115006340634    0.63088764922389
H           0.45936734572149  -11.34893197629562    1.03377166633612
H          -0.68632798740713  -12.47731995466508    0.45494531787962
