22
         -52.117094175406          0.000638024611
C          -1.24774858941890   -0.41941423843072    0.23896729237159
C          -0.38745512104177    0.68781493423206    0.14736786028768
C           0.84906404643778    0.18251349552190   -0.14725179317932
O           0.81266082255981   -1.14810723069592   -0.24392070526818
C          -0.46330823762090   -1.52878761005284   -0.00984432797801
C          -0.81380390350371   -2.90424389369430   -0.04302203724505
S           0.33383258487774   -4.18010521620325   -0.36463266184138
C          -1.04185716377888   -5.27026300806912   -0.11483773952643
N          -2.15210757061918   -4.62663778454048    0.13267658364152
N          -2.03344601718112   -3.34185158979695    0.16260905152178
N          -0.85184900565483   -6.57447873895110   -0.34894152143258
N          -1.67830411369287   -7.41644169632982    0.08451974540040
C          -1.50894549684801   -8.73530035077365   -0.09846417865844
N          -2.55123292016257   -9.56616292713793   -0.42512623740111
N          -2.13873864895923  -10.74793114521542   -0.32491675228686
N          -0.43125943787079   -9.44388842021830    0.21907182038027
N          -0.86390718283710  -10.69849237806062    0.08507346179210
C          -0.11190937600615  -11.76914804950087    0.33748440929097
N           0.53188430883320  -12.68991545795513    0.54468081160897
H          -2.29541083046258   -0.43158751552472    0.45434088902645
H          -0.64497130975982    1.71805599012460    0.28019018802178
H           1.79610316271300    0.66043283127032   -0.30463415852592
