28
         -60.920329599587          0.000992195928
C           0.95169914722600   -1.38028735040956    0.40649638880284
N           0.94457573139245   -0.04514631847721    0.23589547912143
C          -0.24795631498745    0.25870761405363   -0.21139173708141
N          -1.03072493458168   -0.82994465185735   -0.34200011169350
H          -1.98415051377828   -0.89177340834110   -0.66163431673909
C          -0.27844371888604   -1.90906287631164    0.05240974099103
C          -0.79112086635411   -3.23287230448859    0.04341588577640
S           0.11051466609732   -4.62782349535061    0.59255275082267
C          -1.37204877842739   -5.54138025290367    0.21848114470878
N          -2.31217916687696   -4.78238541978951   -0.27802582837614
N          -1.98972958437292   -3.52935723694493   -0.38392363672530
N          -1.30213991720368   -6.86653591789724    0.24504879074620
N          -2.30993947439479   -7.59773718170235    0.46550167560470
C          -2.12151136493031   -8.93262389743788    0.32777698410851
N          -3.16378257769313   -9.79575296888162    0.40393599716954
N          -2.69110988290662  -10.96689160630202    0.28193698548889
N          -0.97174550619657   -9.59940411633462    0.15692807812879
N          -1.37153867610264  -10.84609688305728    0.14237424871856
C          -0.49862143486105  -11.90187489913105    0.00988960646838
C           0.86497730434805  -11.89631015976634   -0.12444120695123
C           1.22927108565758  -13.25747561000632   -0.21267023975087
C           0.06869424008326  -13.96867560924469   -0.12609608658761
O          -0.98550189082035  -13.15053067429626    0.00983863137216
H           1.81846689682732   -1.89691141926008    0.76602149447790
H          -0.57076251833231    1.25257942244699   -0.44854055606888
H           1.49702027087266  -11.03411403865837   -0.15297211714656
H           2.21859801397351  -13.64910973962722   -0.32472169424293
H          -0.13031023476966  -15.02136900002457   -0.14783635114197
