17
         -41.908016568055          0.000599328339
N           1.59475791613005    0.17301494031658    0.01186419397285
C           2.92667668566036    0.24035196709691    0.00292863559133
S           3.83075719797876    1.28236418779338   -1.07380385338353
C           5.27310209700810    0.57903722070483   -0.27753583540901
N           4.95277889797013   -0.27731433814716    0.64695115092750
N           3.68305850901100   -0.46176221052474    0.81745121090839
N           6.45916956420558    1.09323989894670   -0.60349605845805
N           7.51879148567480    0.48450886998722   -0.29786530797849
C           8.72225845029948    1.06416613545248   -0.38650545589562
N           9.82242488655474    0.38814119942806   -0.85522697543074
N          10.83003967679774    1.10167464282001   -0.63016344001430
N           9.08458927025363    2.22685148766371    0.14903283824788
N          10.40906257996013    2.21072993360650   -0.00159496924254
C          11.21342525389951    3.18108341174372    0.42783452258523
N          11.90880158323479    4.01346937832971    0.78797026993885
H           1.04185307773761    0.71169859426765   -0.62913505381795
H           1.15214286762364   -0.47444531948536    0.64130412745855
