28
         -60.921436976106          0.000907329143
C          -0.70820829247952   -0.80490298327691   -0.81294610164306
C           0.02726554643438    0.29924244174885   -0.34540907691236
C           0.75069682181780   -0.15283095700323    0.72134826353140
O           0.51674758766484   -1.44970039662573    0.94366206362421
C          -0.37351836800504   -1.85806463785048    0.01223888608449
C          -0.81826956575896   -3.20804818246674   -0.00029593740925
S          -0.27589372027200   -4.39921543006432    1.16843061734602
C          -1.38427562961840   -5.50166709513688    0.32706280134459
N          -1.97834115415416   -4.93285779528226   -0.69379141563846
N          -1.65807888514271   -3.69081682881436   -0.87485915049778
N          -1.32479993969422   -6.79494895890256    0.61926016760541
N          -2.31707228588303   -7.56761210637052    0.52511177130604
C          -2.08815273380266   -8.89663885382417    0.56734257888380
N          -3.05712596742855   -9.77884125512112    0.91431762078008
N          -2.57637793171986  -10.94515201552443    0.75871858533037
N          -0.98034651285492   -9.54564131517962    0.17752001440647
N          -1.33791884883132  -10.80325440673183    0.30242310184410
C          -0.50169161202861  -11.84419511604292   -0.01363898505508
C          -0.66120777609084  -13.21054513943551    0.03884681650723
N           0.47825497566275  -13.80195724875387   -0.37974407884360
C           1.30980036150246  -12.84133552686666   -0.67997227585501
N           0.76612006746189  -11.61976279744984   -0.47486300161468
H           1.16939765848171  -10.70703342585231   -0.61967050434067
H          -1.39107558677335   -0.84806601519529   -1.63460181480293
H           0.02251412461327    1.29283659022454   -0.74291474439938
H           1.44134120104055    0.34016577048311    1.37674585706046
H          -1.51664208792439  -13.77234441622665    0.35016108848919
H           2.30551855378268  -12.98950189845924   -1.04533314712863
