23
         -51.024193190418          0.000529216071
C          -1.10525111370496   -0.50239986670995   -0.50547890797804
C          -0.22948500704196    0.57209604555916   -0.26351870995642
C           0.86155046300521    0.03744181343664    0.36030956257760
O           0.72321456215563   -1.28283431142050    0.51893092024105
C          -0.47495202214995   -1.62271432021550   -0.00656467589877
C          -0.90096847453581   -2.97922324892058    0.02055441514934
S           0.05487077848400   -4.25950519236617    0.75082136732597
C          -1.30704390539884   -5.31243618355358    0.31636607402470
N          -2.25503341607803   -4.66870978025562   -0.32025626659213
N          -2.02257148715951   -3.40406086537099   -0.48850225730686
N          -1.14326037696263   -6.62355754997085    0.42148579769457
N          -2.08182140978408   -7.42523154099345    0.68330245421080
C          -1.83194174713384   -8.74151438050563    0.50877168204291
N          -2.65475326961926   -9.68431008594008    1.00200095273465
N          -2.18800239255844  -10.81975776882863    0.63038887380097
N          -0.82707392040525   -9.31094183785889   -0.19498593867281
N          -1.11202940904804  -10.56867332431680   -0.08853662013253
N          -0.41738864947792  -11.54179216489064   -0.71993155048859
H          -2.06509224947961   -0.48316011542217   -0.97669987494032
H          -0.38522655555059    1.60044507459677   -0.51620773339614
H           1.76609521686359    0.48258009939614    0.72536291965205
H           0.55299272447804  -11.28765729181014   -0.85903483957610
H          -0.56616833889766  -12.44207320363744   -0.28106764451599
