21
         -51.426263037552          0.000821784554
C           0.88295463959973   -0.91620199299851    0.00004633028036
N           0.72725746401958    0.41792190945425   -0.00284855977772
C          -0.56575341502703    0.63626057536360    0.00048395631262
N          -1.27053091850038   -0.50942565166561    0.00543184992313
H          -2.26944574072248   -0.64335618797492    0.00882882253613
C          -0.35824616941717   -1.53733056778963    0.00534009688511
C          -0.75775948741616   -2.89745689921617    0.01065297410021
S           0.33341111303799   -4.24699482040006    0.01209760476206
C          -1.14314966688702   -5.24831115553247    0.01859555254154
N          -2.22693812672325   -4.52411126857291    0.01993297308128
N          -2.02916451639311   -3.24942279622664    0.01611238535501
N          -0.97097672498194   -6.57363145068313    0.02786273173448
N          -2.00687684016178   -7.31806855743459    0.02337103653032
C          -1.75420185001683   -8.65171512366113    0.03340258171052
N          -0.55266429960139   -9.28877705654682    0.02570571712344
N          -0.79338639718536  -10.54138077629365    0.03325929818417
N          -2.75483685608359   -9.53959109149030    0.04572239809746
N          -2.09115595924822  -10.64454439755427    0.04574627557078
F          -2.70887266638275  -11.82916970381180    0.05629973240618
H           1.85335947561705   -1.37018294635780   -0.00170320807437
H          -1.01378305752590    1.60980995939253   -0.00047054928273
