24
         -50.784536830905          0.000803197113
C          -1.02119617652524   -0.58332202400011    0.68378326141098
C          -0.21700283894957    0.52387267595389    0.35780380099168
C           0.76062696597477    0.04997860102015   -0.47056636783468
O           0.61849160645163   -1.26297031518427   -0.67739192082660
C          -0.46722130202931   -1.66004661833889    0.02310879297683
C          -0.87106233127153   -3.02288208349428   -0.00489790126655
S          -0.03462072506812   -4.24494503742647   -0.94821676421765
C          -1.28788300467472   -5.34667561525712   -0.34509592765965
N          -2.12544966438666   -4.75552456787023    0.47212744049142
N          -1.88565004146516   -3.49606510977299    0.66333871692050
N          -1.12476640241274   -6.64955698425678   -0.53529482611370
N          -2.07617623580598   -7.45844045839742   -0.68077914969425
C          -1.80962824277870   -8.78022147804783   -0.58052766192666
N          -2.58338088159699   -9.71594117117047   -1.18169169763963
N          -2.13952067682599  -10.85209861290069   -0.80567041938003
N          -0.87758362065081   -9.36705203608997    0.18658831582953
N          -1.13543984164504  -10.63607364871296    0.02005222718968
C          -0.42391280717852  -11.68166586401265    0.68291672020145
H          -1.88654759434986   -0.61341893936797    1.31181113707226
H          -0.34318097255411    1.53344149998601    0.69057236027657
H           1.58237549463221    0.53648012321719   -0.95810299062224
H           0.62757878787091  -11.40854861994612    0.75439135771532
H          -0.54873980911086  -12.59564184148213    0.10664110526815
H          -0.82375968565090  -11.82744187444666    1.68802039083708
