22
         -51.291083372694          0.000976751006
C          -1.14752657954197   -0.52676326719199    0.19599829787397
C          -0.47385382995266    0.70007256214090    0.15585116223639
C           0.85935861574723    0.55993250543681   -0.10350454242394
S           1.32317017494952   -1.07312941700955   -0.30772084796801
C          -0.31055199288138   -1.59809612803615   -0.03671211351219
C          -0.68533487308235   -2.96556629959568   -0.05750293433808
S           0.41667558768388   -4.28866492996986   -0.36533324236502
C          -0.99360460400128   -5.32966076360553   -0.10393389838358
N          -2.08052981090950   -4.64509014478353    0.13784408800126
N          -1.91850460865163   -3.36623706669308    0.15345702459565
N          -0.84494475768032   -6.64006735523338   -0.32706756769344
N          -1.70913740428237   -7.45152199434273    0.09404106219965
C          -1.57633366771359   -8.77521758143201   -0.08690763293018
N          -2.64098280767271   -9.57498106344535   -0.41869861109572
N          -2.26187737625833  -10.76820513930136   -0.32323850824768
N          -0.51925402359564   -9.51491909129022    0.22917960778148
N          -0.98620446712035  -10.75592856696770    0.08915386848741
C          -0.26467821452557  -11.84894541098057    0.33318696769246
N           0.34822394284060  -12.79185598625642    0.53623301373527
H          -2.19768117909982   -0.65205072311228    0.38278379232088
H          -0.95022756065335    1.65081965024567    0.31150298009505
H           1.59979943640180    1.33106621142810   -0.18597196605889
