21
         -46.775800989622          0.000846471899
C          -1.15236980220600   -0.33721645343279    0.00636279291495
C          -0.43268834094597    0.86485838780514    0.00261927833411
C           0.91782801971048    0.66864594377867   -0.00408925063955
S           1.34219256873784   -0.98870260354741   -0.00603527742894
C          -0.33329110087389   -1.44560518834010    0.00240168168224
C          -0.75176348257631   -2.80275751713812    0.00498280562339
S           0.33321782849963   -4.16817636506124    0.00000936759436
C          -1.14472368738962   -5.15696071838448    0.00753697775545
N          -2.22439149416310   -4.42565000566417    0.01310109360678
N          -2.02001547183278   -3.15096762303757    0.01193555703834
N          -0.97451208449458   -6.48425183739822    0.00954671662846
N          -2.00834608073224   -7.23062261448680    0.01070823492428
C          -1.75255544403842   -8.56475171095207    0.01248434632215
N          -0.54506443411761   -9.20092177319002    0.00155000212675
N          -0.78381802284827  -10.44690926912781    0.00461771820379
N          -2.74513836013594   -9.45731526189293    0.02239965303770
N          -2.09995340332537  -10.59375671888966    0.01757791810158
H          -2.56736669147979  -11.48957396579103    0.02256362512803
H          -2.22321933281975   -0.41846603554045    0.01175382060537
H          -0.89019237973865    1.83749038660087    0.00485185569136
H           1.69266119677039    1.40986094369020   -0.00802891725060
