18
         -40.811961776003          0.000895871174
N           1.74003514250712    0.20382704021905    0.05592807810777
C           3.07821281597218    0.16226319054472   -0.00192637828827
S           4.10014023182683    1.35976472926813    0.77700290398258
C           5.45524921903023    0.33891187676061    0.19507892617291
N           5.03911444187042   -0.68398503758437   -0.48638230348431
N           3.74478556796399   -0.77905921738490   -0.61343345538371
N           6.68422799957449    0.82619811925380    0.34448415697228
N           7.69322319882294    0.05685694657939    0.33688490665777
C           8.90749275176812    0.64412142891024    0.28040591590244
N          10.02786804584632   -0.03372021073271    0.59241215569351
N          11.01534429572570    0.76006961694627    0.38424646116193
N           9.21117922352181    1.89277568844448   -0.14059801272530
N          10.50445863038927    1.88774054608495   -0.06359870648505
N          11.27585855375924    2.92077548368609   -0.48045307533204
H           1.27213467872789    1.02113545129998    0.40145852839238
H           1.22628469975787   -0.47387966390680   -0.47936171514640
H          10.80550507003474    3.81104754578045   -0.37074246187065
H          12.19613543290079    2.87475646583077   -0.05978592432789
