21
         -47.604366325324          0.000806519523
H           1.41033155785490    0.25652898016362   -0.18226154842657
C           2.45387804353951    0.46006365373988   -0.05456241689734
S           3.41920362718623    1.15498723126595   -1.32104822940290
C           4.76324942461926    0.97933355453200   -0.17557124156241
N           4.37607663888162    0.49756876189959    0.97659294445541
N           3.09975530944955    0.22380096655380    1.03023945028341
N           5.91898895167382    1.57017834351002   -0.46000417302100
N           7.04412777383610    1.08263773130712   -0.19285294284683
C           8.12753147732430    1.88486500484815   -0.28661336503692
N           9.37521197570986    1.37410029651790   -0.43824145762036
N          10.18582203552542    2.34796704033696   -0.39166242758758
N           8.17988932802659    3.21534061610309   -0.13383449879948
N           9.46757334759766    3.45191432328206   -0.19258078859543
C          10.00042932678542    4.71281865025630   -0.05474628181381
C           9.37278553970430    5.91271998736701    0.15632258241418
C          10.41365094952028    6.86469730147809    0.21275772059553
C          11.57446274857461    6.17126695292160    0.03207820254152
O          11.33030526648007    4.86274398059483   -0.13066900643159
H           8.31969123253337    6.07088984816544    0.25528778179600
H          10.30946912874005    7.91842348520258    0.36610991987487
H          12.59880631643651    6.48420328995314   -0.00047022391889
