19
         -45.701800778287          0.000971949095
C           2.94973239030684   -1.15275684465990    0.10282899164987
O           2.41330728592930    0.07933851160051    0.57639841749790
C           2.99972797901857    0.59952191620648    1.62349136517031
S           2.43652187324260    2.11702339684461    2.27900716278645
C           3.75729389618524    1.90123895543487    3.45658485914084
N           4.42158617481767    0.80227214409210    3.26943515110266
N           4.00696734366239    0.07803180321905    2.27078421188203
N           3.86070942389884    2.81233493994761    4.43989340857517
N           4.87640213483514    2.79969103530902    5.17804355581085
C           5.08081283400640    3.70783596196479    6.14313727995916
N           5.48967168198901    3.35189902573724    7.40552089644192
N           5.80059874451625    4.40630937834444    8.01264013593924
N           5.15806392862828    5.02376001959084    5.98360227445447
N           5.62950039049198    5.42835963058006    7.16560249724498
C           5.89857675389419    6.70031862784120    7.45768701355525
N           6.12261064720709    7.79019218351142    7.71656686914394
H           2.34028181228297   -1.42847110415771   -0.75409958578063
H           2.89096839192504   -1.91583776822959    0.88039313328100
H           3.99305631316362   -1.02585181317666   -0.19051763785724
