23
         -50.227254630711          0.000942947423
N           1.84400824002727    0.51282588136504   -0.07108419779864
C           3.17461954784295    0.37389839915152   -0.09700863996571
S           4.27627652387703    1.73569639931432   -0.13307899822726
C           5.56206396799331    0.48540417731468   -0.06849356068836
N           5.07273209453819   -0.71496829355575   -0.05045970168957
N           3.77429096922314   -0.78998691171813   -0.07916716144404
N           6.81723313165763    0.91962146236348   -0.18502583530754
N           7.78193222280547    0.13566108488163    0.08548850279136
C           9.02557072583333    0.64426709310965   -0.06530262464554
N          10.11275861961128   -0.16263890559660   -0.13440841371099
N          11.13615190552507    0.59122437983685   -0.18138819385331
N           9.39695515389371    1.93100221450021   -0.06202183105052
N          10.70048210498814    1.84541122753738   -0.12296015105532
C          11.53451784535061    2.93516087000529   -0.12037895433915
C          12.90148683785514    2.92338514045816   -0.15528412636118
C          13.42732134410401    4.22868829451945   -0.14320959674897
C          12.46100398867769    5.18629035757724   -0.09984934341609
S          10.87360853259296    4.52990797971007   -0.07371824111521
H           1.42047309644417    1.41360618211298   -0.19537475321164
H           1.27951611196826   -0.31787957572436   -0.10805734149826
H          13.47935007533544    2.01888950170934   -0.18768829946709
H          14.47953878116764    4.44584032513597   -0.16485192987026
H          12.58777817868757    6.25037271599190   -0.08128660732742
