25
         -54.847086658264          0.000384329972
C           6.36664023132754   -1.17976245384449    0.98359111769833
O           6.09358859780896   -0.69106403620583    2.29115911911010
C           5.97777119014588    0.61362443941476    2.39959289269179
S           5.60477773879216    1.32624168959179    3.95672727500418
C           5.62826538880934    2.87014650539721    3.06083573741311
N           5.91946432364950    2.71683049723472    1.80446425579413
N           6.12653710817204    1.47460402939318    1.44116205745342
N           5.57236709024711    3.99689052689254    3.77188359790515
N           5.13605497643080    5.07082622167809    3.27057920188434
C           5.18225405802934    6.17069303964073    4.06301369560194
N           5.23789123417812    6.20959477082644    5.42330362934231
N           5.14322235291242    7.42781495049107    5.76416277446920
N           5.04829216965951    7.40059970107326    3.56537974772293
N           5.04504004743052    8.14402778406253    4.64813683290777
C           4.93115937221703    9.51542940659707    4.60724750162835
C           4.79544192025516   10.35177658085651    3.53109837957436
C           4.72823500844161   11.64994041346265    4.08319604062826
C           4.82733302141525   11.49515256359823    5.43438025573813
O           4.95174631963194   10.19936973804185    5.75998445347724
H           6.41914356159818   -2.26158765126055    1.07804252636582
H           7.31319023130919   -0.77750049446716    0.61849706241794
H           5.57119234415859   -0.89089731318531    0.29451135359751
H           4.75206351848189   10.06151295755869    2.50277880093916
H           4.62042805593552   12.56898650208690    3.54606746576584
H           4.82211013896202   12.20179963106537    6.23985422486877
