24
         -50.441994112419          0.000984641138
C           0.66344982943728   -1.00494438996586   -0.61321136402470
N           0.60766712146304    0.30278135180616   -0.29815532396973
C          -0.45428643796660    0.45187522723561    0.45285810056788
N          -1.10386429101359   -0.71265649745487    0.64564179296514
H          -1.94117551639305   -0.89446459973233    1.17571155987339
C          -0.40064121638986   -1.67642556449502   -0.03485817643571
C          -0.80295500717674   -3.03795192456495   -0.04871663433765
S           0.04378912727425   -4.29102367693732   -0.93312132307352
C          -1.23877695371042   -5.36639198849077   -0.33210718364743
N          -2.09080789630050   -4.74684348935322    0.44213189935176
N          -1.84221095943756   -3.48167835566176    0.60492835909409
N          -1.08486932445405   -6.67609224644626   -0.49279887598780
N          -2.04883243087878   -7.47084448662726   -0.64068134247794
C          -1.80439735601470   -8.79592029578258   -0.52642913360229
N          -2.59575053471397   -9.72139617609105   -1.11973367319291
N          -2.17019973322879  -10.86267808293162   -0.74003229303144
N          -0.88057578203372   -9.39511608124475    0.24032870179522
N          -1.16032712362206  -10.65996378101072    0.08131287709051
C          -0.45931168082483  -11.71266524920956    0.74497096771996
H           1.44653303415870   -1.40260671444854   -1.22633379231563
H          -0.77492455395087    1.38533236036860    0.86995568063710
H           0.51491828139349  -11.33920654165781    1.05261903397938
H          -0.35342945484485  -12.55163467546983    0.05923863885818
H          -1.01914114077223  -12.03916412183152    1.62340150416582
