28
         -60.077231595098          0.000996996275
C          -0.76569961933389   -0.79618996545904    0.84759613165449
C          -0.03711802341977    0.30061802977635    0.48420971957822
C           0.80279831030765   -0.15089152352605   -0.55918138367943
N           0.60387091918930   -1.42041141020588   -0.81030872723218
N          -0.35002039338182   -1.81640356106294    0.04128603835146
C          -0.80415595302146   -3.09875179728636    0.05033538991316
S          -0.19587069456098   -4.29461691312931   -1.06890287057969
C          -1.36897943924832   -5.37683274859924   -0.27844855107766
N          -2.02294889128143   -4.79279395798954    0.69120078219230
N          -1.70115925991071   -3.54399681950312    0.87899614627809
N          -1.29958248268205   -6.67525395352825   -0.54834830593692
N          -2.29797709335408   -7.44248707240304   -0.52988719211626
C          -2.06740793809704   -8.77296253882901   -0.55417535325540
N          -3.02168781662280   -9.65151895998102   -0.94821019007898
N          -2.55000218993421  -10.81810563872597   -0.77373800942155
N          -0.98212225825005   -9.42586516973346   -0.11579723893913
N          -1.33103550757461  -10.67588348141319   -0.25988761723301
C          -0.52841454634064  -11.73484684811510    0.08035597630342
C          -0.83010547938087  -13.06425653186076   -0.03780941769387
C           0.23442497740152  -13.87260772452117    0.39965592207053
C           1.30319905801818  -13.14845854109193    0.83312802662493
S           1.05043242645070  -11.45442213393038    0.72209865611062
H          -1.52467369171303   -0.95783975627255    1.58423498959246
H          -0.08570620358424    1.28689790757896    0.89633151451142
H           1.52997724131787    0.40384685015506   -1.11814095892318
H          -1.76804856183192  -13.42138369581706   -0.41973063510857
H           0.20704502255707  -14.94667222231085    0.39262110275674
H           2.23503808828205  -13.51466982221331    1.21560605533904
